 ****** HSPICE -- N-2017.12 linux64 (Nov 21 2017) ******                        
  Copyright (c) 1986 - 2024 by Synopsys, Inc. All Rights Reserved.              
  This software and the associated documentation are proprietary
  to Synopsys, Inc. This software may only be used in accordance
  with the terms and conditions of a written license agreement with
  Synopsys, Inc. All other use, reproduction, or distribution of
  this software is strictly prohibited.
  Input File: p3.sp                                                             
  Command line options: /eda/synopsys/hspice/2017.12/hspice/linux64/hspice -i p3.sp -o p3
 lic:  
 lic: FLEXlm: SDK_11.6.8.3 
 lic: USER:   user                 HOSTNAME: centos 
 lic: HOSTID: 00505631ddcc         PID:      14210 
 lic: Using FLEXlm license file: 
 lic: 27000@centos 
 lic: Checkout 1 hspice 
 lic: License/Maintenance for hspice will expire on 30-dec-2101/2100.2100 
 lic: 1(in_use)/99(total) FLOATING license(s) on SERVER 27000@centos 
 lic:   
  **warning** (p3.sp:8) Global net name, "vdd", in subckt pin list. The pin will be connected to the local net. Recommend to not use global net names in subckt pin lists.
1****** HSPICE -- N-2017.12 linux64 (Nov 21 2017) ******                        
 ******  
 pratice3 from lab3-3 pass-transistor 3-input xor (loading c=1p)

 ****** circuit name directory
 circuit number to circuit name directory
   number circuitname                     definition         multiplier
        0 main circuit
        1 xxor.                           xor3               1.00 
        2 x1.                             inv                1.00 
        3 x2.                             inv                1.00 
        4 xxor.xa.                        inv                1.00 
        5 xxor.xb.                        inv                1.00 
        6 xxor.xc.                        inv                1.00 
  **warning** (p3.sp:35) Both nodes of element vgnd are connected together; Line ignored.
  **info** (p3.sp:38) DC voltage reset to initial transient source value in source 0:vina. new dc=0.1800D+01
 

  
      
 **info** set option symb=1 internally to help for convergence.
 *****************************************************************
 ******  option summary
 ******
 runlvl  = 3         bypass  = 2.0000    
  Opening plot unit= 15
 file=p3.pa0

 **info** dc convergence successful at Newton-Raphson method 
 ******  
 pratice3 from lab3-3 pass-transistor 3-input xor (loading c=1p)

 ****** operating point information tnom=  25.000 temp=  25.000 ******
 ****** operating point status is voltage   simulation time is     0.     
    node    =voltage      node    =voltage      node    =voltage

 +0:a       =   1.8000  0:b       =   1.8000  0:c       =   1.8000 
 +0:out     =   1.8000  0:out1    =   1.5264  0:out2    =  32.6601u
 +0:vdd     =   1.8000  1:aout    =   7.6031n 1:bout    =   8.8805n
 +1:cout    =  24.9540n 1:n1      =   1.5381  1:n2      =  36.7995n

 ******
 pratice3 from lab3-3 pass-transistor 3-input xor (loading c=1p)

 ****** transient analysis tnom=  25.000 temp=  25.000 ******
 delay001=   1.0149n  targ=  52.2649n   trig=  51.2500n
 delay011=   1.0313n  targ= 152.2813n   trig= 151.2500n
 delay100=   1.0373n  targ= 202.2873n   trig= 201.2500n
 delay101=   1.0203n  targ= 252.2703n   trig= 251.2500n
 delay111= 995.2454p  targ= 352.2452n   trig= 351.2500n
 delay000=   1.0397n  targ= 402.2897n   trig= 401.2500n
 pw=  49.2202u  from=   0.             to= 405.0000n

          ***** job concluded
 ******  
 pratice3 from lab3-3 pass-transistor 3-input xor (loading c=1p)

 ****** job statistics summary tnom=  25.000 temp=  25.000 ******
  
  
 ******  Machine Information  ******
 CPU:
 model name	: Intel(R) Core(TM) i7-10870H CPU @ 2.20GHz
 cpu MHz	: 2207.257
  
 OS:
 Linux version 3.10.0-693.el7.x86_64 (builder@kbuilder.dev.centos.org) (gcc version 4.8.5 20150623 (Red Hat 4.8.5-16) (GCC) ) #1 SMP Tue Aug 22 21:09:27 UTC 2017


  ******  HSPICE Threads Information  ******

  Command Line Threads Count :     1
  Available CPU Count        :     2
  Actual Threads Count       :     1


  ****** Statistics of Ignored Elements ******
  Voltage Sources :       1

  ******  Circuit Statistics  ******
  # nodes       =      45 # elements   =      21
  # resistors   =       0 # capacitors =       1 # inductors   =       0
  # mutual_inds =       0 # vccs       =       0 # vcvs        =       0
  # cccs        =       0 # ccvs       =       0 # volt_srcs   =       4
  # curr_srcs   =       0 # diodes     =       0 # bjts        =       0
  # jfets       =       0 # mosfets    =      16 # U elements  =       0
  # T elements  =       0 # W elements =       0 # B elements  =       0
  # S elements  =       0 # P elements =       0 # va device   =       0
  # vector_srcs =       0 # N elements =       0


  ******  Runtime Statistics (seconds)  ******

  analysis           time    # points   tot. iter  conv.iter
  op point           0.00           1          21
  transient          0.03        4051         717         241 rev=         9
  readin             0.01
  errchk             0.01
  setup              0.00
  output             0.00


           peak memory used        290.91 megabytes
           total cpu time            0.05 seconds
           total elapsed time        0.06 seconds
           job started at     13:03:05 05/10/2024
           job ended   at     13:03:05 05/10/2024


 lic: Release hspice token(s) 
 lic: total license checkout elapse time:        0.02(s)
