$DATA1 SOURCE='HSPICE' VERSION='J-2014.09-2'
.TITLE 'Pseudo 3-input XOR'
 k delayn1 pw pdp temper  alter#
  5.0000e-014	  2.3474e-010	  3.9292e-005	  9.2233e-015	     25.000000 1
  1.0000e-013	  4.2011e-010	  5.9961e-005	  2.5190e-014	     25.000000 1
  1.5000e-013	  6.0559e-010	  7.9536e-005	  4.8166e-014	     25.000000 1
  2.0000e-013	  7.9162e-010	  9.5335e-005	  7.5470e-014	     25.000000 1
  2.5000e-013	  9.7450e-010	  1.0612e-004	  1.0341e-013	     25.000000 1
  3.0000e-013	  1.1566e-009	  1.1244e-004	  1.3005e-013	     25.000000 1
  3.5000e-013	  1.3539e-009	  1.1610e-004	  1.5718e-013	     25.000000 1
  4.0000e-013	  1.5259e-009	  1.1802e-004	  1.8008e-013	     25.000000 1
  4.5000e-013	  1.7073e-009	  1.1922e-004	  2.0354e-013	     25.000000 1
  5.0000e-013	  1.8893e-009	  1.1988e-004	  2.2650e-013	     25.000000 1
