$DATA1 SOURCE='HSPICE' VERSION='N-2017.12 linux64' PARAM_COUNT=1
.TITLE 'lab5-1 dynamic 3-input xor (loading c=0.05p~1p)'
 k                delayf           delayr           pw              
                  pdp1             pdp2             temper          
                  alter#          
  5.000e-14        1.340e-10        2.283e-10        7.440e-05      
                   9.966e-15        1.699e-14         25.0000       
                 1               
  1.000e-13        1.693e-10        3.187e-10        9.457e-05      
                   1.601e-14        3.014e-14         25.0000       
                 1               
  1.500e-13        2.164e-10        4.105e-10        1.155e-04      
                   2.499e-14        4.742e-14         25.0000       
                 1               
  2.000e-13        2.627e-10        5.039e-10        1.361e-04      
                   3.575e-14        6.859e-14         25.0000       
                 1               
  2.500e-13        3.093e-10        6.007e-10        1.560e-04      
                   4.827e-14        9.372e-14         25.0000       
                 1               
  3.000e-13        3.554e-10        6.929e-10        1.755e-04      
                   6.236e-14        1.216e-13         25.0000       
                 1               
  3.500e-13        4.014e-10        7.942e-10        1.945e-04      
                   7.804e-14        1.544e-13         25.0000       
                 1               
  4.000e-13        4.466e-10        8.777e-10        2.122e-04      
                   9.476e-14        1.862e-13         25.0000       
                 1               
  4.500e-13        4.923e-10        9.705e-10        2.293e-04      
                   1.129e-13        2.226e-13         25.0000       
                 1               
  5.000e-13        5.382e-10        1.060e-09        2.445e-04      
                   1.316e-13        2.592e-13         25.0000       
                 1               
  5.500e-13        5.831e-10        1.184e-09        2.600e-04      
                   1.516e-13        3.078e-13         25.0000       
                 1               
  6.000e-13        6.277e-10        1.221e-09        2.731e-04      
                   1.714e-13        3.335e-13         25.0000       
                 1               
  6.500e-13        6.729e-10        1.331e-09        2.859e-04      
                   1.924e-13        3.805e-13         25.0000       
                 1               
  7.000e-13        7.191e-10        1.359e-09        2.968e-04      
                   2.134e-13        4.034e-13         25.0000       
                 1               
  7.500e-13        7.664e-10        1.445e-09        3.070e-04      
                   2.353e-13        4.438e-13         25.0000       
                 1               
  8.000e-13        8.095e-10        1.468e-09        3.156e-04      
                   2.555e-13        4.634e-13         25.0000       
                 1               
  8.500e-13        8.557e-10        1.491e-09        3.233e-04      
                   2.766e-13        4.820e-13         25.0000       
                 1               
  9.000e-13        9.014e-10        1.516e-09        3.297e-04      
                   2.972e-13        4.997e-13         25.0000       
                 1               
  9.500e-13        9.465e-10        1.541e-09        3.362e-04      
                   3.182e-13        5.180e-13         25.0000       
                 1               
  1.000e-12        9.913e-10        1.532e-09        3.414e-04      
                   3.384e-13        5.231e-13         25.0000       
                 1               
