$DATA1 SOURCE='HSPICE' VERSION='J-2014.09-2 64-BIT'
.TITLE '3-input xor'
 delayn1          pw               pdp              temper          
 alter#          
  5.348e-10        6.401e-05        3.424e-14         25.0000       
 1               
