$DATA1 SOURCE='HSPICE' VERSION='J-2014.09-2 64-BIT'
.TITLE '2-input nand'
 delayn1          delayn2          delayn3          delayn4         
 pw               pdp              temper           alter#          
  3.396e-11        9.346e-11        1.368e-10        2.383e-10      
  1.073e-05        3.644e-16         25.0000        1               
