$DATA1 SOURCE='HSPICE' VERSION='J-2014.09-2 64-BIT'
.TITLE '2-input nand'
 delayn1          pw               pdp              temper          
 alter#          
  1.342e-10        9.541e-06        1.280e-15         25.0000       
 1               
