$DATA1 SOURCE='HSPICE' VERSION='J-2014.09-2 64-BIT'
.TITLE '6-input nand'
 delayn1          pw               pdp              temper          
 alter#          
  3.874e-10        1.243e-05        4.815e-15         25.0000       
 1               
