 ****** HSPICE -- N-2017.12 linux64 (Nov 21 2017) ******                        
  Copyright (c) 1986 - 2024 by Synopsys, Inc. All Rights Reserved.              
  This software and the associated documentation are proprietary
  to Synopsys, Inc. This software may only be used in accordance
  with the terms and conditions of a written license agreement with
  Synopsys, Inc. All other use, reproduction, or distribution of
  this software is strictly prohibited.
  Input File: p6.sp                                                             
  Command line options: /eda/synopsys/hspice/2017.12/hspice/linux64/hspice -i p6.sp -o p6
 lic:  
 lic: FLEXlm: SDK_11.6.8.3 
 lic: USER:   user                 HOSTNAME: centos 
 lic: HOSTID: 00505631ddcc         PID:      4126 
 lic: Using FLEXlm license file: 
 lic: 27000@centos 
 lic: Checkout 1 hspice 
 lic: License/Maintenance for hspice will expire on 30-dec-2101/2100.2100 
 lic: 1(in_use)/99(total) FLOATING license(s) on SERVER 27000@centos 
 lic:   
  **warning** (p6.sp:8) Global net name, "vdd", in subckt pin list. The pin will be connected to the local net. Recommend to not use global net names in subckt pin lists.
1****** HSPICE -- N-2017.12 linux64 (Nov 21 2017) ******                        
 ******  
 pratice6 a*b+c*(b*d+a*e)(loading c=0.5p)

 ****** circuit name directory
 circuit number to circuit name directory
   number circuitname                     definition         multiplier
        0 main circuit
        1 xout.                           logic              1.00 
        2 xbuffer1.                       inv                1.00 
        3 xbuffer2.                       inv                1.00 
        4 xbuffer3.                       inv                1.00 
        5 xbuffer4.                       inv                1.00 
        6 xbuffer5.                       inv                1.00 
        7 xbuffer6.                       inv                1.00 
        8 xout.xab.                       and                1.00 
        9 xout.xae.                       and                1.00 
       10 xout.xbd.                       and                1.00 
       11 xout.xaebd.                     or                 1.00 
       12 xout.xcaebd.                    and                1.00 
       13 xout.xabcaebd.                  or                 1.00 
       14 xout.xab.xinvb.                 inv                1.00 
       15 xout.xae.xinvb.                 inv                1.00 
       16 xout.xbd.xinvb.                 inv                1.00 
       17 xout.xaebd.xinvb.               inv                1.00 
       18 xout.xcaebd.xinvb.              inv                1.00 
       19 xout.xabcaebd.xinvb.            inv                1.00 
  **warning** (p6.sp:53) Both nodes of element vgnd are connected together; Line ignored.
  **info** (p6.sp:61) DC voltage reset to initial transient source value in source 0:vina. new dc=0.1800D+01
 

  
      
 **info** set option symb=1 internally to help for convergence.
 *****************************************************************
 ******  option summary
 ******
 runlvl  = 3         bypass  = 2.0000    
  Opening plot unit= 15
 file=p6.pa0

 **info** dc convergence successful at Newton-Raphson method 
 ******  
 pratice6 a*b+c*(b*d+a*e)(loading c=0.5p)

 ****** operating point information tnom=  25.000 temp=  25.000 ******
 ****** operating point status is voltage   simulation time is     0.     
     node    =voltage       node    =voltage       node    =voltage

 + 0:a       =   1.8000   0:b       =   1.8000   0:c       =   1.8000 
 + 0:d       =   0.       0:e       =   0.       0:out     =   1.8000 
 + 0:out1    =   1.5578   0:out2    =   4.5948u  0:out3    =   1.8000 
 + 0:out4    =   9.7161n  0:out5    =   1.8000   0:out6    =   9.7161n
 + 0:vdd     =   1.8000   1:n1      =   1.5604   1:n2      =   8.5270n
 + 1:n3      =   4.2635n  1:n4      =  12.7906n  1:n5      =  12.7906n
 + 8:bout    =   9.7161n  9:bout    =   1.8000  10:bout    =   1.8000 
 +11:bout    =   1.8000  12:bout    =   9.7161n 13:bout    =   1.8000 

 ******
 pratice6 a*b+c*(b*d+a*e)(loading c=0.5p)

 ****** transient analysis tnom=  25.000 temp=  25.000 ******
 delay000=   1.0120n  targ=   2.2620n   trig=   1.2500n
 delay110=   1.0251n  targ=  77.2751n   trig=  76.2500n
 delay001=   1.0405n  targ= 102.2905n   trig= 101.2500n
 delay111=   1.0306n  targ= 177.2806n   trig= 176.2500n
 pw=  22.0730u  from=   0.             to= 200.0000n

          ***** job concluded
 ******  
 pratice6 a*b+c*(b*d+a*e)(loading c=0.5p)

 ****** job statistics summary tnom=  25.000 temp=  25.000 ******
  
  
 ******  Machine Information  ******
 CPU:
 model name	: Intel(R) Core(TM) i7-10870H CPU @ 2.20GHz
 cpu MHz	: 2207.389
  
 OS:
 Linux version 3.10.0-693.el7.x86_64 (builder@kbuilder.dev.centos.org) (gcc version 4.8.5 20150623 (Red Hat 4.8.5-16) (GCC) ) #1 SMP Tue Aug 22 21:09:27 UTC 2017


  ******  HSPICE Threads Information  ******

  Command Line Threads Count :     1
  Available CPU Count        :     2
  Actual Threads Count       :     1


  ****** Statistics of Ignored Elements ******
  Voltage Sources :       1

  ******  Circuit Statistics  ******
  # nodes       =      97 # elements   =      43
  # resistors   =       0 # capacitors =       1 # inductors   =       0
  # mutual_inds =       0 # vccs       =       0 # vcvs        =       0
  # cccs        =       0 # ccvs       =       0 # volt_srcs   =       6
  # curr_srcs   =       0 # diodes     =       0 # bjts        =       0
  # jfets       =       0 # mosfets    =      36 # U elements  =       0
  # T elements  =       0 # W elements =       0 # B elements  =       0
  # S elements  =       0 # P elements =       0 # va device   =       0
  # vector_srcs =       0 # N elements =       0


  ******  Runtime Statistics (seconds)  ******

  analysis           time    # points   tot. iter  conv.iter
  op point           0.00           1          22
  transient          0.04        2001         595         209 rev=        10
  readin             0.00
  errchk             0.03
  setup              0.00
  output             0.00


           peak memory used        290.45 megabytes
           total cpu time            0.07 seconds
           total elapsed time        0.09 seconds
           job started at     14:44:27 05/07/2024
           job ended   at     14:44:27 05/07/2024


 lic: Release hspice token(s) 
 lic: total license checkout elapse time:        0.01(s)
