 ****** HSPICE -- J-2014.09-2 64-BIT (Oct 22 2014) win64 ******                 
  Copyright (C) 2014 Synopsys, Inc. All Rights Reserved.                        
  Unpublished-rights reserved under US copyright laws.
  This program is protected by law and is subject to the
  terms and conditions of the license agreement from Synopsys.
  Use of this program is your acceptance to be bound by the
  license agreement. HSPICE is the trademark of Synopsys, Inc.
  Input File: inverter.sp                                                       
  Command line options: -i inverter.sp -o inverter.lis
  lic:  
  lic: FLEXlm: v10.9.8 
  lic: USER:   user                 HOSTNAME: LAPTOP-V0SVEGVF 
  lic: HOSTID: "e8f408ef740e 00ff95ffeb7e 005056c00001 005056c00008 e8f408ef740a
  e8f408ef740b eaf408e
  lic: Using FLEXlm license file: 
  lic: 27000@LAPTOP-V0SVEGVF 
  lic: Checkout 1 hspice 
  lic: License/Maintenance for hspice will expire on 30-dec-2030/2029.2029 
  lic: 1(in_use)/99(total) FLOATING license(s) on SERVER 27000@LAPTOP-V0SVEGVF 
  lic:   
 Init: read install configuration file: C:\synopsys\Hspice_J-2014.09-2\meta.cfg
  **warning** (inverter.sp:9) Both nodes of element vgnd are connected together; Line ignored.
  **info** (inverter.sp:24) DC voltage reset to initial transient source value              in source        0:vin                 new dc=  0.1800D+01
 

  
      
 **info** set option symb=1 internally to help for convergence.
 *****************************************************************
 ******  option summary
 ******
 runlvl  = 3         bypass  = 2         
 **info** dc convergence successful at Newton-Raphson method 
1****** HSPICE -- J-2014.09-2 64-BIT (Oct 22 2014) win64 ******                 
 ******  
 inverter

 ****** operating point information tnom=  25.000 temp=  25.000 ******
 ****** operating point status is voltage   simulation time is     0.     
    node    =voltage      node    =voltage      node    =voltage

 +0:in      =   1.8000  0:out     =   1.8000  0:out1    =  20.0614n
 +0:vdd     =   1.8000 

 ******  
 inverter

 ****** transient analysis tnom=  25.000 temp=  25.000 ******
 delayn1= 214.0712p  targ=  15.3641n   trig=  15.1500n
 pw=   8.5504m  from=   0.          to=  80.0000n
 pdp=   1.8304p

          ***** job concluded
1****** HSPICE -- J-2014.09-2 64-BIT (Oct 22 2014) win64 ******                 
 ******  
 inverter

 ****** job statistics summary tnom=  25.000 temp=  25.000 ******

  ******  HSPICE Threads Information  ******

  Command Line Threads Count :     1
  Available CPU Count        :     8
  Actual Threads Count       :     1


  ****** Statistics of Ignored Elements ******
  Voltage Sources :       1

  ******  Circuit Statistics  ******
  # nodes       =      17 # elements   =       8
  # resistors   =       0 # capacitors =       0 # inductors   =       0
  # mutual_inds =       0 # vccs       =       0 # vcvs        =       0
  # cccs        =       0 # ccvs       =       0 # volt_srcs   =       2
  # curr_srcs   =       0 # diodes     =       0 # bjts        =       0
  # jfets       =       0 # mosfets    =       6 # U elements  =       0
  # T elements  =       0 # W elements =       0 # B elements  =       0
  # S elements  =       0 # P elements =       0 # va device   =       0
  # vector_srcs =       0 # N elements =       0


  ******  Runtime Statistics (seconds)  ******

  analysis           time    # points   tot. iter  conv.iter
  op point           0.00           1           4
  transient          0.01         801         877         342 rev=        17
  readin             0.02
  errchk             0.00
  setup              0.00
  output             0.00


           peak memory used         44.15 megabytes
           total cpu time            0.03 seconds
           total elapsed time        0.05 seconds
           job started at     10:05:09 07/17/2023
           job ended   at     10:05:09 07/17/2023


  lic: Release hspice token(s) 
 lic: total license checkout elapse time:        0.02(s)
