$DATA1 SOURCE='HSPICE' VERSION='J-2014.09-2 64-BIT'
.TITLE 'inverter'
 delayn1          pw               pdp              temper          
 alter#          
  2.141e-10        8.550e-03        1.830e-12         25.0000       
 1               
