$DATA1 SOURCE='HSPICE' VERSION='J-2014.09-2 64-BIT'
.TITLE 'two-bit-comparator'
 delayn1          delayn2          delayn3          pw              
 pdp              temper           alter#          
  5.655e-10        2.953e-10        3.823e-10        1.360e-04      
  7.690e-14         25.0000        1               
