$DATA1 SOURCE='HSPICE' VERSION='J-2014.09-2 64-BIT'
.TITLE 'pass-transistor 3-input xor'
 k                delayn1          pw               pdp             
                  temper           alter#          
  5.000e-14        1.202e-07        4.921e-06        5.915e-13      
                    25.0000        1               
  1.000e-13        1.203e-07        6.444e-06        7.752e-13      
                    25.0000        1               
  1.500e-13        1.204e-07        7.991e-06        9.621e-13      
                    25.0000        1               
  2.000e-13        1.205e-07        9.523e-06        1.147e-12      
                    25.0000        1               
  2.500e-13        1.206e-07        1.113e-05        1.343e-12      
                    25.0000        1               
  3.000e-13        1.207e-07        1.267e-05        1.529e-12      
                    25.0000        1               
  3.500e-13        1.208e-07        1.415e-05        1.709e-12      
                    25.0000        1               
  4.000e-13        1.209e-07        1.568e-05        1.895e-12      
                    25.0000        1               
  4.500e-13        1.210e-07        1.720e-05        2.081e-12      
                    25.0000        1               
  5.000e-13        1.211e-07        1.869e-05        2.262e-12      
                    25.0000        1               
