 ****** HSPICE -- J-2014.09-2 64-BIT (Oct 22 2014) win64 ******                 
  Copyright (C) 2014 Synopsys, Inc. All Rights Reserved.                        
  Unpublished-rights reserved under US copyright laws.
  This program is protected by law and is subject to the
  terms and conditions of the license agreement from Synopsys.
  Use of this program is your acceptance to be bound by the
  license agreement. HSPICE is the trademark of Synopsys, Inc.
  Input File: eight-bit-comparator.sp                                           
  Command line options: -mt 14 -hpp -i eight-bit-comparator.sp -o eight-bit-comparator.lis
  lic:  
  lic: FLEXlm: v10.9.8 
  lic: USER:   User                 HOSTNAME: LAPTOP-HIOSMBNM 
  lic: HOSTID: "a036bc64ac5e 009337e9bab9 005056c00001 005056c00008 009337e9bab5
  009337e9bab6 029337e
  lic: Using FLEXlm license file: 
  lic: 27000@LAPTOP-HIOSMBNM 
  lic: Checkout 1 hspice 
  lic: License/Maintenance for hspice will expire on 30-dec-2030/2029.2029 
  lic: 1(in_use)/99(total) FLOATING license(s) on SERVER 27000@LAPTOP-HIOSMBNM 
  lic:   
 Init: read install configuration file: C:\synopsys\Hspice_J-2014.09-2\meta.cfg
 
 ****** Advanced Analog Library - J-2014.09-2 (Oct 22 2014) ****** 
  **warning** (eight-bit-comparator.sp:12) Global net name, "vdd", in subckt pin list. The pin will be connected to the local net. Recommend to not use global net names in subckt pin lists.
1****** HSPICE -- J-2014.09-2 64-BIT (Oct 22 2014) win64 ******                 
 ******  
 eight-bit-comparator

 ****** circuit name directory
 circuit number to circuit name directory
   number circuitname                     definition         multiplier
        0 main circuit
        1 xi1.                            comp2              1.00 
        2 xi1.xh1.                        comp1              1.00 
        3 xi1.xh2.                        comp1              1.00 
        4 xi1.xh3.                        back               1.00 
        5 xi1.xh1.xg1.                    comp               1.00 
        6 xi1.xh1.xg2.                    comp               1.00 
        7 xi1.xh1.xg3.                    back               1.00 
        8 xi1.xh2.xg1.                    comp               1.00 
        9 xi1.xh2.xg2.                    comp               1.00 
       10 xi1.xh2.xg3.                    back               1.00 
       11 xi1.xh3.xf1.                    inv1               1.00 
       12 xi1.xh3.xf2.                    inv1               1.00 
       13 xi1.xh3.xf3.                    inv1               1.00 
       14 xi1.xh3.xf4.                    nand1              1.00 
       15 xi1.xh3.xf5.                    nand1              1.00 
       16 xi1.xh3.xf6.                    nand1              1.00 
       17 xi1.xh3.xf7.                    nor1               1.00 
       18 xi1.xh3.xf8.                    nand1              1.00 
       19 xi1.xh3.xf9.                    inv1               1.00 
       20 xi1.xh1.xg1.xa1.                inv1               1.00 
       21 xi1.xh1.xg1.xa2.                inv1               1.00 
       22 xi1.xh1.xg1.xa3.                inv1               1.00 
       23 xi1.xh1.xg1.xa4.                inv1               1.00 
       24 xi1.xh1.xg1.xb1.                nor1               1.00 
       25 xi1.xh1.xg1.xb2.                nand1              1.00 
       26 xi1.xh1.xg1.xb3.                nand1              1.00 
       27 xi1.xh1.xg1.xb4.                nand1              1.00 
       28 xi1.xh1.xg1.xb5.                nand1              1.00 
       29 xi1.xh1.xg1.xb6.                nor1               1.00 
       30 xi1.xh1.xg1.xc1.                nor1               1.00 
       31 xi1.xh1.xg1.xc2.                inv1               1.00 
       32 xi1.xh1.xg1.xc3.                nor1               1.00 
       33 xi1.xh1.xg1.xc4.                inv1               1.00 
       34 xi1.xh1.xg1.xd1.                nand1              1.00 
       35 xi1.xh1.xg1.xd2.                nand1              1.00 
       36 xi1.xh1.xg1.xe1.                nor1               1.00 
       37 xi1.xh1.xg2.xa1.                inv1               1.00 
       38 xi1.xh1.xg2.xa2.                inv1               1.00 
       39 xi1.xh1.xg2.xa3.                inv1               1.00 
       40 xi1.xh1.xg2.xa4.                inv1               1.00 
       41 xi1.xh1.xg2.xb1.                nor1               1.00 
       42 xi1.xh1.xg2.xb2.                nand1              1.00 
       43 xi1.xh1.xg2.xb3.                nand1              1.00 
       44 xi1.xh1.xg2.xb4.                nand1              1.00 
       45 xi1.xh1.xg2.xb5.                nand1              1.00 
       46 xi1.xh1.xg2.xb6.                nor1               1.00 
       47 xi1.xh1.xg2.xc1.                nor1               1.00 
       48 xi1.xh1.xg2.xc2.                inv1               1.00 
       49 xi1.xh1.xg2.xc3.                nor1               1.00 
       50 xi1.xh1.xg2.xc4.                inv1               1.00 
       51 xi1.xh1.xg2.xd1.                nand1              1.00 
       52 xi1.xh1.xg2.xd2.                nand1              1.00 
       53 xi1.xh1.xg2.xe1.                nor1               1.00 
       54 xi1.xh1.xg3.xf1.                inv1               1.00 
       55 xi1.xh1.xg3.xf2.                inv1               1.00 
       56 xi1.xh1.xg3.xf3.                inv1               1.00 
       57 xi1.xh1.xg3.xf4.                nand1              1.00 
       58 xi1.xh1.xg3.xf5.                nand1              1.00 
       59 xi1.xh1.xg3.xf6.                nand1              1.00 
       60 xi1.xh1.xg3.xf7.                nor1               1.00 
       61 xi1.xh1.xg3.xf8.                nand1              1.00 
       62 xi1.xh1.xg3.xf9.                inv1               1.00 
       63 xi1.xh2.xg1.xa1.                inv1               1.00 
       64 xi1.xh2.xg1.xa2.                inv1               1.00 
       65 xi1.xh2.xg1.xa3.                inv1               1.00 
       66 xi1.xh2.xg1.xa4.                inv1               1.00 
       67 xi1.xh2.xg1.xb1.                nor1               1.00 
       68 xi1.xh2.xg1.xb2.                nand1              1.00 
       69 xi1.xh2.xg1.xb3.                nand1              1.00 
       70 xi1.xh2.xg1.xb4.                nand1              1.00 
       71 xi1.xh2.xg1.xb5.                nand1              1.00 
       72 xi1.xh2.xg1.xb6.                nor1               1.00 
       73 xi1.xh2.xg1.xc1.                nor1               1.00 
       74 xi1.xh2.xg1.xc2.                inv1               1.00 
       75 xi1.xh2.xg1.xc3.                nor1               1.00 
       76 xi1.xh2.xg1.xc4.                inv1               1.00 
       77 xi1.xh2.xg1.xd1.                nand1              1.00 
       78 xi1.xh2.xg1.xd2.                nand1              1.00 
       79 xi1.xh2.xg1.xe1.                nor1               1.00 
       80 xi1.xh2.xg2.xa1.                inv1               1.00 
       81 xi1.xh2.xg2.xa2.                inv1               1.00 
       82 xi1.xh2.xg2.xa3.                inv1               1.00 
       83 xi1.xh2.xg2.xa4.                inv1               1.00 
       84 xi1.xh2.xg2.xb1.                nor1               1.00 
       85 xi1.xh2.xg2.xb2.                nand1              1.00 
       86 xi1.xh2.xg2.xb3.                nand1              1.00 
       87 xi1.xh2.xg2.xb4.                nand1              1.00 
       88 xi1.xh2.xg2.xb5.                nand1              1.00 
       89 xi1.xh2.xg2.xb6.                nor1               1.00 
       90 xi1.xh2.xg2.xc1.                nor1               1.00 
       91 xi1.xh2.xg2.xc2.                inv1               1.00 
       92 xi1.xh2.xg2.xc3.                nor1               1.00 
       93 xi1.xh2.xg2.xc4.                inv1               1.00 
       94 xi1.xh2.xg2.xd1.                nand1              1.00 
       95 xi1.xh2.xg2.xd2.                nand1              1.00 
       96 xi1.xh2.xg2.xe1.                nor1               1.00 
       97 xi1.xh2.xg3.xf1.                inv1               1.00 
       98 xi1.xh2.xg3.xf2.                inv1               1.00 
       99 xi1.xh2.xg3.xf3.                inv1               1.00 
      100 xi1.xh2.xg3.xf4.                nand1              1.00 
      101 xi1.xh2.xg3.xf5.                nand1              1.00 
      102 xi1.xh2.xg3.xf6.                nand1              1.00 
      103 xi1.xh2.xg3.xf7.                nor1               1.00 
      104 xi1.xh2.xg3.xf8.                nand1              1.00 
      105 xi1.xh2.xg3.xf9.                inv1               1.00 
  **info** (eight-bit-comparator.sp:83) DC voltage reset to initial transient source value              in source        0:va0                 new dc=  0.1800D+01
  **warning** (eight-bit-comparator.sp:9) Both nodes of element vgnd are connected together; Line ignored.
 

  
      
 **info** set option symb=1 internally to help for convergence.
 *****************************************************************
 ******  option summary
 ******
 runlvl  = 3         bypass  = 2         
  Opening plot unit= 79
 file=eight-bit-comparator.pa0

 **info** dc convergence successful at Newton-Raphson method 
1****** HSPICE -- J-2014.09-2 64-BIT (Oct 22 2014) win64 ******                 
 ******  
 eight-bit-comparator

 ****** operating point information tnom=  25.000 temp=  25.000 ******
 ****** operating point status is all       simulation time is     0.     
      node    =voltage        node    =voltage        node    =voltage

 +  0:a0      =   1.8000    0:a1      =   1.8000    0:a2      =   1.8000 
 +  0:a3      =   1.8000    0:a4      =   1.8000    0:a5      =   1.8000 
 +  0:a6      =   1.8000    0:a7      =   1.8000    0:b0      =   1.8000 
 +  0:b1      =   1.8000    0:b2      =   1.8000    0:b3      =   1.8000 
 +  0:b4      =   1.8000    0:b5      =   1.8000    0:b6      =   1.8000 
 +  0:b7      =   1.8000    0:eq      =   1.8000    0:gt      =  32.4458n
 +  0:lt      =  32.4458n   0:vdd     =   1.8000    1:eq1     =   1.8000 
 +  1:eq2     =   1.8000    1:gt1     =  32.4458n   1:gt2     =  32.4458n
 +  1:lt1     =  32.4458n   1:lt2     =  32.4458n   2:eq1     =   1.8000 
 +  2:eq2     =   1.8000    2:gt1     =  32.4458n   2:gt2     =  32.4458n
 +  2:lt1     =  32.4458n   2:lt2     =  32.4458n   3:eq1     =   1.8000 
 +  3:eq2     =   1.8000    3:gt1     =  32.4458n   3:gt2     =  32.4458n
 +  3:lt1     =  32.4458n   3:lt2     =  32.4458n   4:n1      =   1.8000 
 +  4:n2      =  10.9565n   4:n3      =   1.8000    4:n4      =   1.8000 
 +  4:n5      =   1.8000    4:n9      =  10.9565n   5:a0out   =  10.9565n
 +  5:a1out   =  10.9565n   5:b0out   =  10.9565n   5:b1out   =  10.9565n
 +  5:n1      =   8.1114n   5:n10     =   1.8000    5:n2      =   1.8000 
 +  5:n3      =   1.8000    5:n4      =   1.8000    5:n5      =   1.8000 
 +  5:n6      =   8.4485n   5:n7      =   8.1114n   5:n8      =   8.4485n
 +  5:n9      =   1.8000    6:a0out   =  10.9565n   6:a1out   =  10.9565n
 +  6:b0out   =  10.9565n   6:b1out   =  10.9565n   6:n1      =   8.1114n
 +  6:n10     =   1.8000    6:n2      =   1.8000    6:n3      =   1.8000 
 +  6:n4      =   1.8000    6:n5      =   1.8000    6:n6      =   8.4485n
 +  6:n7      =   8.1114n   6:n8      =   8.4485n   6:n9      =   1.8000 
 +  7:n1      =   1.8000    7:n2      =  10.9565n   7:n3      =   1.8000 
 +  7:n4      =   1.8000    7:n5      =   1.8000    7:n9      =  10.9565n
 +  8:a0out   =  10.9565n   8:a1out   =  10.9565n   8:b0out   =  10.9565n
 +  8:b1out   =  10.9565n   8:n1      =   8.1114n   8:n10     =   1.8000 
 +  8:n2      =   1.8000    8:n3      =   1.8000    8:n4      =   1.8000 
 +  8:n5      =   1.8000    8:n6      =   8.4485n   8:n7      =   8.1114n
 +  8:n8      =   8.4486n   8:n9      =   1.8000    9:a0out   =  10.9565n
 +  9:a1out   =  10.9565n   9:b0out   =  10.9565n   9:b1out   =  10.9565n
 +  9:n1      =   8.1114n   9:n10     =   1.8000    9:n2      =   1.8000 
 +  9:n3      =   1.8000    9:n4      =   1.8000    9:n5      =   1.8000 
 +  9:n6      =   8.4485n   9:n7      =   8.1114n   9:n8      =   8.4485n
 +  9:n9      =   1.8000   10:n1      =   1.8000   10:n2      =  10.9565n
 + 10:n3      =   1.8000   10:n4      =   1.8000   10:n5      =   1.8000 
 + 10:n9      =  10.9565n  14:net     =   1.5650   15:net     =   1.5650 
 + 16:net     =  16.2229n  17:net     =   1.8000   18:net     =  16.2229n
 + 24:net     =   1.8000   25:net     =   7.0193n  26:net     =   7.0193n
 + 27:net     =   1.5650   28:net     =   1.5650   29:net     = 402.3407m
 + 30:net     =   1.8000   32:net     = 402.3406m  34:net     =  16.2229n
 + 35:net     =  16.2229n  36:net     =   1.8000   41:net     =   1.8000 
 + 42:net     =   7.0193n  43:net     =   7.0193n  44:net     =   1.5650 
 + 45:net     =   1.5650   46:net     = 402.3407m  47:net     =   1.8000 
 + 49:net     = 402.3406m  51:net     =  16.2229n  52:net     =  16.2229n
 + 53:net     =   1.8000   57:net     =   1.5650   58:net     =   1.5650 
 + 59:net     =  16.2229n  60:net     =   1.8000   61:net     =  16.2229n
 + 67:net     =   1.8000   68:net     =   7.0193n  69:net     =   7.0193n
 + 70:net     =   1.5650   71:net     =   1.5650   72:net     = 402.3407m
 + 73:net     =   1.8000   75:net     = 402.3407m  77:net     =  16.2229n
 + 78:net     =  16.2229n  79:net     =   1.8000   84:net     =   1.8000 
 + 85:net     =   7.0193n  86:net     =   7.0193n  87:net     =   1.5650 
 + 88:net     =   1.5650   89:net     = 402.3407m  90:net     =   1.8000 
 + 92:net     = 402.3406m  94:net     =  16.2229n  95:net     =  16.2229n
 + 96:net     =   1.8000  100:net     =   1.5650  101:net     =   1.5650 
 +102:net     =  16.2229n 103:net     =   1.8000  104:net     =  16.2229n

 
Warning: 14 port signals are assumed local to their subcircuits 
 
Port signals that have the same names as global nets: 
Location  Port name  Subckt    
          "GND"      "BACK"    
          "VDD"      "BACK"    
          "GND"      "COMP"    
          "VDD"      "COMP"    
          "GND"      "COMP1"   
          "VDD"      "COMP1"   
          "GND"      "COMP2"   
          "VDD"      "COMP2"   
          "GND"      "INV1"    
          "VDD"      "INV1"    
          "GND"      "NAND1"   
          "VDD"      "NAND1"   
          "GND"      "NOR1"    
          "VDD"      "NOR1"    
 
".opt runlvl= 3" sets ".opt sim_accuracy= 1"  
 
  ******  Summary of Possible Problems in Netlist  *************** 
  Negative resistor              0   
  Negative capacitor             0   
  Negative inductor              0   
  Unconnected node               0   
  Dangling terminal              0   
  Non-rail bulk terminal         0   
  Floating MOS gate              0   
  Floating MOS bulk              0   
  Floating BJT substrate         0   
  Floating controlled input      0   
  Floating current source nodes  0   
  Source loop                    0   
   
Running HSPICE Precision Parallel (HPP) 
Auto-select simulation algortithm 
.   
SSolve ...  
  
NDD 12 
Running 12 threads. 
Thread count specified on command line = 14 
Thread count has been reduced due to circuit size. 
  
 
License user information 
FLEXLM    v8.5b             
USER      User              
HOSTNAME  LAPTOP-HIOSMBNM   
HOSTID    029337e9bab5      
PID       15008             
 
License file: 27000@LAPTOP-HIOSMBNM 
license  checkout number  expiration date         # in use / total  server                 
 
hspice   6                30-dec-2030/2029.2029  7/99               27000@LAPTOP-HIOSMBNM  
 
0.1% time = 164.296048 ns ( etc = 16:39, ett = 16:40 ) 
( wall = 1.0 sec cpu = 1.0 sec s=1 ) 
0.2% time = 327.686138 ns ( etc = 24:57, ett = 25:00 ) 
( wall = 3.0 sec cpu = 3.0 sec s=1 ) 
0.3% time = 491.794211 ns ( etc = 22:09, ett = 22:13 ) 
( wall = 4.0 sec cpu = 4.0 sec s=1 ) 
0.4% time = 655.373683 ns ( etc = 24:54, ett = 25:00 ) 
( wall = 6.0 sec cpu = 6.0 sec s=1 ) 
0.5% time = 819.661044 ns ( etc = 23:13, ett = 23:20 ) 
( wall = 7.0 sec cpu = 7.0 sec s=1 ) 
0.6% time = 983.044559 ns ( etc = 22:05, ett = 22:13 ) 
( wall = 8.0 sec cpu = 8.0 sec s=1 ) 
0.7% time = 1.147163 us ( etc = 21:16, ett = 21:25 ) 
( wall = 9.0 sec cpu = 9.0 sec s=1 ) 
0.8% time = 1.310936 us ( etc = 20:40, ett = 20:50 ) 
( wall = 10.0 sec cpu = 10.0 sec s=1 ) 
1.0% time = 1.638671 us ( etc = 18:09, ett = 18:20 ) 
( wall = 11.0 sec cpu = 11.0 sec s=1 ) 
1.1% time = 1.802284 us ( etc = 17:58, ett = 18:10 ) 
( wall = 12.0 sec cpu = 12.0 sec s=1 ) 
1.2% time = 1.966169 us ( etc = 17:50, ett = 18:03 ) 
( wall = 13.0 sec cpu = 13.0 sec s=1 ) 
1.3% time = 2.130100 us ( etc = 17:42, ett = 17:56 ) 
( wall = 14.0 sec cpu = 14.0 sec s=1 ) 
1.4% time = 2.294608 us ( etc = 17:36, ett = 17:51 ) 
( wall = 15.0 sec cpu = 15.0 sec s=1 ) 
1.6% time = 2.621446 us ( etc = 16:24, ett = 16:40 ) 
( wall = 16.0 sec cpu = 16.0 sec s=1 ) 
1.7% time = 2.785291 us ( etc = 16:23, ett = 16:40 ) 
( wall = 17.0 sec cpu = 17.0 sec s=1 ) 
1.8% time = 2.949641 us ( etc = 16:22, ett = 16:40 ) 
( wall = 18.0 sec cpu = 18.0 sec s=1 ) 
1.9% time = 3.112963 us ( etc = 16:21, ett = 16:40 ) 
( wall = 19.0 sec cpu = 19.0 sec s=1 ) 
2.0% time = 3.276840 us ( etc = 16:20, ett = 16:40 ) 
( wall = 20.0 sec cpu = 20.0 sec s=1 ) 
2.1% time = 3.440643 us ( etc = 16:19, ett = 16:40 ) 
( wall = 21.0 sec cpu = 21.0 sec s=1 ) 
2.2% time = 3.605100 us ( etc = 16:18, ett = 16:40 ) 
( wall = 22.0 sec cpu = 22.0 sec s=1 ) 
2.3% time = 3.768542 us ( etc = 16:17, ett = 16:40 ) 
( wall = 23.0 sec cpu = 23.0 sec s=1 ) 
2.4% time = 3.932188 us ( etc = 16:16, ett = 16:40 ) 
( wall = 24.0 sec cpu = 24.0 sec s=1 ) 
2.5% time = 4.096083 us ( etc = 16:15, ett = 16:40 ) 
( wall = 25.0 sec cpu = 25.0 sec s=1 ) 
2.7% time = 4.423949 us ( etc = 15:36, ett = 16:02 ) 
( wall = 26.0 sec cpu = 26.0 sec s=1 ) 
2.8% time = 4.587600 us ( etc = 15:37, ett = 16:04 ) 
( wall = 27.0 sec cpu = 27.0 sec s=1 ) 
2.9% time = 4.751598 us ( etc = 15:37, ett = 16:05 ) 
( wall = 28.0 sec cpu = 28.0 sec s=1 ) 
3.0% time = 4.915200 us ( etc = 15:37, ett = 16:06 ) 
( wall = 29.0 sec cpu = 29.0 sec s=1 ) 
3.1% time = 5.079640 us ( etc = 15:37, ett = 16:07 ) 
( wall = 30.0 sec cpu = 30.0 sec s=1 ) 
3.2% time = 5.242884 us ( etc = 15:37, ett = 16:08 ) 
( wall = 31.0 sec cpu = 31.0 sec s=1 ) 
3.3% time = 5.407256 us ( etc = 15:37, ett = 16:09 ) 
( wall = 32.0 sec cpu = 32.0 sec s=1 ) 
3.4% time = 5.570580 us ( etc = 15:37, ett = 16:10 ) 
( wall = 33.0 sec cpu = 33.0 sec s=1 ) 
3.5% time = 5.734642 us ( etc = 15:37, ett = 16:11 ) 
( wall = 34.0 sec cpu = 34.0 sec s=1 ) 
3.6% time = 5.898280 us ( etc = 15:37, ett = 16:12 ) 
( wall = 35.0 sec cpu = 35.0 sec s=1 ) 
3.7% time = 6.062600 us ( etc = 15:36, ett = 16:12 ) 
( wall = 36.0 sec cpu = 36.0 sec s=1 ) 
3.9% time = 6.390100 us ( etc = 15:11, ett = 15:48 ) 
( wall = 37.0 sec cpu = 37.0 sec s=1 ) 
4.0% time = 6.553710 us ( etc = 15:12, ett = 15:50 ) 
( wall = 38.0 sec cpu = 38.0 sec s=1 ) 
4.1% time = 6.717600 us ( etc = 15:12, ett = 15:51 ) 
( wall = 39.0 sec cpu = 39.0 sec s=1 ) 
4.2% time = 6.881788 us ( etc = 15:12, ett = 15:52 ) 
( wall = 40.0 sec cpu = 40.0 sec s=1 ) 
4.3% time = 7.045130 us ( etc = 15:12, ett = 15:53 ) 
( wall = 41.0 sec cpu = 41.0 sec s=1 ) 
4.5% time = 7.372800 us ( etc = 14:51, ett = 15:33 ) 
( wall = 42.0 sec cpu = 42.0 sec s=1 ) 
4.6% time = 7.536772 us ( etc = 14:51, ett = 15:34 ) 
( wall = 43.0 sec cpu = 43.0 sec s=1 ) 
4.7% time = 7.700484 us ( etc = 14:52, ett = 15:36 ) 
( wall = 44.0 sec cpu = 44.0 sec s=1 ) 
4.8% time = 7.864642 us ( etc = 14:52, ett = 15:37 ) 
( wall = 45.0 sec cpu = 45.0 sec s=1 ) 
4.9% time = 8.028198 us ( etc = 14:52, ett = 15:38 ) 
( wall = 46.0 sec cpu = 46.0 sec s=1 ) 
5.0% time = 8.192275 us ( etc = 14:53, ett = 15:40 ) 
( wall = 47.0 sec cpu = 47.0 sec s=1 ) 
5.1% time = 8.355928 us ( etc = 14:53, ett = 15:41 ) 
( wall = 48.0 sec cpu = 48.0 sec s=1 ) 
5.2% time = 8.520100 us ( etc = 14:53, ett = 15:42 ) 
( wall = 49.0 sec cpu = 49.0 sec s=1 ) 
5.3% time = 8.683555 us ( etc = 14:53, ett = 15:43 ) 
( wall = 50.0 sec cpu = 50.0 sec s=1 ) 
5.5% time = 9.011810 us ( etc = 14:36, ett = 15:27 ) 
( wall = 51.0 sec cpu = 51.0 sec s=1 ) 
5.6% time = 9.175100 us ( etc = 14:36, ett = 15:28 ) 
( wall = 52.0 sec cpu = 52.0 sec s=1 ) 
5.7% time = 9.339042 us ( etc = 14:51, ett = 15:44 ) 
( wall = 53.0 sec cpu = 53.0 sec s=1 ) 
5.8% time = 9.502721 us ( etc = 14:33, ett = 15:27 ) 
( wall = 54.0 sec cpu = 54.0 sec s=1 ) 
5.9% time = 9.667187 us ( etc = 14:32, ett = 15:27 ) 
( wall = 55.0 sec cpu = 55.0 sec s=1 ) 
6.0% time = 9.830409 us ( etc = 14:14, ett = 15:10 ) 
( wall = 56.0 sec cpu = 56.0 sec s=1 ) 
6.1% time = 9.994342 us ( etc = 14:13, ett = 15:10 ) 
( wall = 57.0 sec cpu = 57.0 sec s=1 ) 
6.2% time = 10.158085 us ( etc = 14:12, ett = 15:10 ) 
( wall = 58.0 sec cpu = 58.0 sec s=1 ) 
6.3% time = 10.322600 us ( etc = 14:11, ett = 15:10 ) 
( wall = 59.0 sec cpu = 59.0 sec s=1 ) 
6.4% time = 10.485844 us ( etc = 14:10, ett = 15:10 ) 
( wall = 1:00 cpu = 1:00 s=1 ) 
6.6% time = 10.813661 us ( etc = 14:09, ett = 15:10 ) 
( wall = 1:01 cpu = 1:01 s=1 ) 
6.7% time = 10.977600 us ( etc = 14:08, ett = 15:10 ) 
( wall = 1:02 cpu = 1:02 s=1 ) 
6.8% time = 11.141401 us ( etc = 14:07, ett = 15:10 ) 
( wall = 1:03 cpu = 1:03 s=1 ) 
6.9% time = 11.305100 us ( etc = 14:06, ett = 15:10 ) 
( wall = 1:04 cpu = 1:04 s=1 ) 
7.0% time = 11.469185 us ( etc = 14:05, ett = 15:10 ) 
( wall = 1:05 cpu = 1:05 s=1 ) 
7.1% time = 11.632642 us ( etc = 14:20, ett = 15:26 ) 
( wall = 1:06 cpu = 1:06 s=1 ) 
7.2% time = 11.796545 us ( etc = 14:19, ett = 15:26 ) 
( wall = 1:07 cpu = 1:07 s=1 ) 
7.4% time = 12.124591 us ( etc = 14:01, ett = 15:09 ) 
( wall = 1:08 cpu = 1:08 s=1 ) 
7.5% time = 12.288014 us ( etc = 14:00, ett = 15:09 ) 
( wall = 1:09 cpu = 1:09 s=1 ) 
7.6% time = 12.452265 us ( etc = 14:00, ett = 15:10 ) 
( wall = 1:10 cpu = 1:10 s=1 ) 
7.7% time = 12.615755 us ( etc = 13:59, ett = 15:10 ) 
( wall = 1:11 cpu = 1:11 s=1 ) 
7.8% time = 12.779619 us ( etc = 13:58, ett = 15:10 ) 
( wall = 1:12 cpu = 1:12 s=1 ) 
7.9% time = 12.943806 us ( etc = 13:57, ett = 15:10 ) 
( wall = 1:13 cpu = 1:13 s=1 ) 
8.0% time = 13.107308 us ( etc = 13:56, ett = 15:10 ) 
( wall = 1:14 cpu = 1:14 s=1 ) 
8.1% time = 13.271053 us ( etc = 13:55, ett = 15:10 ) 
( wall = 1:15 cpu = 1:15 s=1 ) 
8.3% time = 13.599211 us ( etc = 13:53, ett = 15:09 ) 
( wall = 1:16 cpu = 1:16 s=1 ) 
8.4% time = 13.762600 us ( etc = 13:52, ett = 15:09 ) 
( wall = 1:17 cpu = 1:17 s=1 ) 
8.5% time = 13.927158 us ( etc = 13:51, ett = 15:09 ) 
( wall = 1:18 cpu = 1:18 s=1 ) 
8.6% time = 14.090240 us ( etc = 13:50, ett = 15:09 ) 
( wall = 1:19 cpu = 1:19 s=1 ) 
8.7% time = 14.255100 us ( etc = 13:50, ett = 15:10 ) 
( wall = 1:20 cpu = 1:20 s=1 ) 
8.8% time = 14.417931 us ( etc = 13:49, ett = 15:10 ) 
( wall = 1:21 cpu = 1:21 s=1 ) 
8.9% time = 14.582123 us ( etc = 13:48, ett = 15:10 ) 
( wall = 1:22 cpu = 1:22 s=1 ) 
9.0% time = 14.745624 us ( etc = 13:47, ett = 15:10 ) 
( wall = 1:23 cpu = 1:23 s=1 ) 
9.1% time = 14.910100 us ( etc = 13:46, ett = 15:10 ) 
( wall = 1:24 cpu = 1:24 s=1 ) 
9.2% time = 15.073546 us ( etc = 13:45, ett = 15:10 ) 
( wall = 1:25 cpu = 1:25 s=1 ) 
9.4% time = 15.400985 us ( etc = 13:28, ett = 14:54 ) 
( wall = 1:26 cpu = 1:26 s=1 ) 
9.5% time = 15.565100 us ( etc = 13:42, ett = 15:09 ) 
( wall = 1:27 cpu = 1:27 s=1 ) 
9.6% time = 15.728789 us ( etc = 13:41, ett = 15:09 ) 
( wall = 1:28 cpu = 1:28 s=1 ) 
9.7% time = 15.892600 us ( etc = 13:40, ett = 15:09 ) 
( wall = 1:29 cpu = 1:29 s=1 ) 
9.8% time = 16.056479 us ( etc = 13:40, ett = 15:10 ) 
( wall = 1:30 cpu = 1:30 s=1 ) 
9.9% time = 16.220178 us ( etc = 13:39, ett = 15:10 ) 
( wall = 1:31 cpu = 1:31 s=1 ) 
10.0% time = 16.384005 us ( etc = 13:36, ett = 15:07 ) 
( wall = 1:31 cpu = 1:31 s=1 ) 
10.1% time = 16.547858 us ( etc = 13:35, ett = 15:07 ) 
( wall = 1:32 cpu = 1:32 s=1 ) 
10.2% time = 16.712131 us ( etc = 13:34, ett = 15:07 ) 
( wall = 1:33 cpu = 1:33 s=1 ) 
10.3% time = 16.875532 us ( etc = 13:33, ett = 15:07 ) 
( wall = 1:34 cpu = 1:34 s=1 ) 
10.4% time = 17.039612 us ( etc = 13:33, ett = 15:08 ) 
( wall = 1:35 cpu = 1:35 s=1 ) 
10.5% time = 17.203200 us ( etc = 13:32, ett = 15:08 ) 
( wall = 1:36 cpu = 1:36 s=1 ) 
10.6% time = 17.367600 us ( etc = 13:31, ett = 15:08 ) 
( wall = 1:37 cpu = 1:37 s=1 ) 
10.7% time = 17.531249 us ( etc = 13:30, ett = 15:08 ) 
( wall = 1:38 cpu = 1:38 s=1 ) 
10.9% time = 17.858707 us ( etc = 13:13, ett = 14:52 ) 
( wall = 1:39 cpu = 1:39 s=1 ) 
11.0% time = 18.022600 us ( etc = 13:27, ett = 15:07 ) 
( wall = 1:40 cpu = 1:40 s=1 ) 
11.1% time = 18.186516 us ( etc = 13:26, ett = 15:07 ) 
( wall = 1:41 cpu = 1:41 s=1 ) 
11.2% time = 18.350100 us ( etc = 13:25, ett = 15:07 ) 
( wall = 1:42 cpu = 1:42 s=1 ) 
11.3% time = 18.514131 us ( etc = 13:24, ett = 15:07 ) 
( wall = 1:43 cpu = 1:43 s=1 ) 
11.4% time = 18.677762 us ( etc = 13:23, ett = 15:07 ) 
( wall = 1:44 cpu = 1:44 s=1 ) 
11.6% time = 19.005443 us ( etc = 13:07, ett = 14:52 ) 
( wall = 1:45 cpu = 1:45 s=1 ) 
11.7% time = 19.169300 us ( etc = 13:06, ett = 14:52 ) 
( wall = 1:46 cpu = 1:46 s=1 ) 
11.8% time = 19.333205 us ( etc = 13:05, ett = 14:52 ) 
( wall = 1:47 cpu = 1:47 s=1 ) 
11.9% time = 19.497056 us ( etc = 13:04, ett = 14:52 ) 
( wall = 1:48 cpu = 1:48 s=1 ) 
12.0% time = 19.660823 us ( etc = 13:04, ett = 14:53 ) 
( wall = 1:49 cpu = 1:49 s=1 ) 
12.1% time = 19.824653 us ( etc = 13:17, ett = 15:07 ) 
( wall = 1:50 cpu = 1:50 s=1 ) 
12.2% time = 19.988553 us ( etc = 13:16, ett = 15:07 ) 
( wall = 1:51 cpu = 1:51 s=1 ) 
12.3% time = 20.152600 us ( etc = 13:15, ett = 15:07 ) 
( wall = 1:52 cpu = 1:52 s=1 ) 
12.4% time = 20.316882 us ( etc = 13:14, ett = 15:07 ) 
( wall = 1:53 cpu = 1:53 s=1 ) 
12.5% time = 20.480100 us ( etc = 13:13, ett = 15:07 ) 
( wall = 1:54 cpu = 1:54 s=1 ) 
12.7% time = 20.807686 us ( etc = 12:57, ett = 14:52 ) 
( wall = 1:55 cpu = 1:55 s=1 ) 
12.8% time = 20.971675 us ( etc = 12:56, ett = 14:52 ) 
( wall = 1:56 cpu = 1:56 s=1 ) 
12.9% time = 21.135372 us ( etc = 13:10, ett = 15:07 ) 
( wall = 1:57 cpu = 1:57 s=1 ) 
13.0% time = 21.299217 us ( etc = 13:09, ett = 15:07 ) 
( wall = 1:58 cpu = 1:58 s=1 ) 
13.1% time = 21.463044 us ( etc = 13:08, ett = 15:07 ) 
( wall = 1:59 cpu = 1:59 s=1 ) 
13.2% time = 21.627600 us ( etc = 13:07, ett = 15:07 ) 
( wall = 2:00 cpu = 2:00 s=1 ) 
13.4% time = 21.955100 us ( etc = 12:51, ett = 14:52 ) 
( wall = 2:01 cpu = 2:01 s=1 ) 
13.5% time = 22.118658 us ( etc = 12:50, ett = 14:52 ) 
( wall = 2:02 cpu = 2:02 s=1 ) 
13.6% time = 22.282600 us ( etc = 12:49, ett = 14:52 ) 
( wall = 2:03 cpu = 2:03 s=1 ) 
13.7% time = 22.446193 us ( etc = 12:48, ett = 14:52 ) 
( wall = 2:04 cpu = 2:04 s=1 ) 
13.9% time = 22.774171 us ( etc = 12:47, ett = 14:52 ) 
( wall = 2:05 cpu = 2:05 s=1 ) 
14.0% time = 22.937600 us ( etc = 12:46, ett = 14:52 ) 
( wall = 2:06 cpu = 2:06 s=1 ) 
14.1% time = 23.101667 us ( etc = 12:45, ett = 14:52 ) 
( wall = 2:07 cpu = 2:07 s=1 ) 
14.2% time = 23.265288 us ( etc = 12:44, ett = 14:52 ) 
( wall = 2:08 cpu = 2:08 s=1 ) 
14.3% time = 23.429638 us ( etc = 12:43, ett = 14:52 ) 
( wall = 2:09 cpu = 2:09 s=1 ) 
14.4% time = 23.592967 us ( etc = 12:42, ett = 14:52 ) 
( wall = 2:10 cpu = 2:10 s=1 ) 
14.6% time = 23.920664 us ( etc = 12:27, ett = 14:38 ) 
( wall = 2:11 cpu = 2:11 s=1 ) 
14.7% time = 24.084502 us ( etc = 12:26, ett = 14:38 ) 
( wall = 2:12 cpu = 2:12 s=1 ) 
14.8% time = 24.248554 us ( etc = 12:25, ett = 14:38 ) 
( wall = 2:13 cpu = 2:13 s=1 ) 
14.9% time = 24.412361 us ( etc = 12:24, ett = 14:38 ) 
( wall = 2:14 cpu = 2:14 s=1 ) 
15.0% time = 24.576055 us ( etc = 12:37, ett = 14:52 ) 
( wall = 2:15 cpu = 2:15 s=1 ) 
15.2% time = 24.903957 us ( etc = 12:22, ett = 14:38 ) 
( wall = 2:16 cpu = 2:16 s=1 ) 
15.3% time = 25.067600 us ( etc = 12:21, ett = 14:38 ) 
( wall = 2:17 cpu = 2:17 s=1 ) 
15.4% time = 25.231598 us ( etc = 12:20, ett = 14:38 ) 
( wall = 2:18 cpu = 2:18 s=1 ) 
15.5% time = 25.395200 us ( etc = 12:19, ett = 14:38 ) 
( wall = 2:19 cpu = 2:19 s=1 ) 
15.6% time = 25.559570 us ( etc = 12:18, ett = 14:38 ) 
( wall = 2:20 cpu = 2:20 s=1 ) 
15.7% time = 25.722884 us ( etc = 12:32, ett = 14:53 ) 
( wall = 2:21 cpu = 2:21 s=1 ) 
15.8% time = 25.887256 us ( etc = 12:31, ett = 14:53 ) 
( wall = 2:22 cpu = 2:22 s=1 ) 
16.0% time = 26.214641 us ( etc = 12:16, ett = 14:39 ) 
( wall = 2:23 cpu = 2:23 s=1 ) 
16.1% time = 26.378280 us ( etc = 12:15, ett = 14:39 ) 
( wall = 2:24 cpu = 2:24 s=1 ) 
16.2% time = 26.542324 us ( etc = 12:44, ett = 15:11 ) 
( wall = 2:27 cpu = 2:27 s=1 ) 
16.3% time = 26.705941 us ( etc = 12:43, ett = 15:11 ) 
( wall = 2:28 cpu = 2:28 s=1 ) 
16.4% time = 26.870100 us ( etc = 12:42, ett = 15:11 ) 
( wall = 2:29 cpu = 2:29 s=1 ) 
16.5% time = 27.033709 us ( etc = 12:41, ett = 15:11 ) 
( wall = 2:30 cpu = 2:30 s=1 ) 
16.6% time = 27.197600 us ( etc = 12:54, ett = 15:25 ) 
( wall = 2:31 cpu = 2:31 s=1 ) 
16.8% time = 27.525130 us ( etc = 12:53, ett = 15:26 ) 
( wall = 2:33 cpu = 2:33 s=1 ) 
16.9% time = 27.689369 us ( etc = 12:52, ett = 15:26 ) 
( wall = 2:34 cpu = 2:34 s=1 ) 
17.0% time = 27.852800 us ( etc = 13:06, ett = 15:42 ) 
( wall = 2:36 cpu = 2:36 s=1 ) 
17.1% time = 28.017174 us ( etc = 13:05, ett = 15:42 ) 
( wall = 2:37 cpu = 2:37 s=1 ) 
17.2% time = 28.180496 us ( etc = 13:04, ett = 15:42 ) 
( wall = 2:38 cpu = 2:38 s=1 ) 
17.3% time = 28.345100 us ( etc = 13:17, ett = 15:56 ) 
( wall = 2:39 cpu = 2:39 s=1 ) 
17.5% time = 28.672271 us ( etc = 13:01, ett = 15:41 ) 
( wall = 2:40 cpu = 2:40 s=1 ) 
17.6% time = 28.835967 us ( etc = 13:00, ett = 15:41 ) 
( wall = 2:41 cpu = 2:41 s=1 ) 
17.7% time = 29.000100 us ( etc = 12:59, ett = 15:41 ) 
( wall = 2:42 cpu = 2:42 s=1 ) 
17.8% time = 29.163749 us ( etc = 12:58, ett = 15:41 ) 
( wall = 2:43 cpu = 2:43 s=1 ) 
18.0% time = 29.491429 us ( etc = 12:43, ett = 15:27 ) 
( wall = 2:44 cpu = 2:44 s=1 ) 
18.1% time = 29.655100 us ( etc = 12:42, ett = 15:27 ) 
( wall = 2:45 cpu = 2:45 s=1 ) 
18.2% time = 29.819647 us ( etc = 12:41, ett = 15:27 ) 
( wall = 2:46 cpu = 2:46 s=1 ) 
18.3% time = 29.982721 us ( etc = 12:40, ett = 15:27 ) 
( wall = 2:47 cpu = 2:47 s=1 ) 
18.5% time = 30.310411 us ( etc = 12:25, ett = 15:13 ) 
( wall = 2:48 cpu = 2:48 s=1 ) 
18.6% time = 30.474539 us ( etc = 12:37, ett = 15:26 ) 
( wall = 2:49 cpu = 2:49 s=1 ) 
18.7% time = 30.638085 us ( etc = 12:36, ett = 15:26 ) 
( wall = 2:50 cpu = 2:50 s=1 ) 
18.8% time = 30.802038 us ( etc = 12:36, ett = 15:27 ) 
( wall = 2:51 cpu = 2:51 s=1 ) 
19.0% time = 31.129639 us ( etc = 12:21, ett = 15:13 ) 
( wall = 2:52 cpu = 2:52 s=1 ) 
19.1% time = 31.293475 us ( etc = 12:20, ett = 15:13 ) 
( wall = 2:53 cpu = 2:53 s=1 ) 
19.2% time = 31.457600 us ( etc = 12:19, ett = 15:13 ) 
( wall = 2:54 cpu = 2:54 s=1 ) 
19.3% time = 31.621193 us ( etc = 12:31, ett = 15:26 ) 
( wall = 2:55 cpu = 2:55 s=1 ) 
19.4% time = 31.785100 us ( etc = 12:30, ett = 15:26 ) 
( wall = 2:56 cpu = 2:56 s=1 ) 
19.5% time = 31.949084 us ( etc = 12:29, ett = 15:26 ) 
( wall = 2:57 cpu = 2:57 s=1 ) 
19.7% time = 32.277100 us ( etc = 12:14, ett = 15:12 ) 
( wall = 2:58 cpu = 2:58 s=1 ) 
19.8% time = 32.440329 us ( etc = 12:26, ett = 15:25 ) 
( wall = 2:59 cpu = 2:59 s=1 ) 
19.9% time = 32.605100 us ( etc = 12:25, ett = 15:25 ) 
( wall = 3:00 cpu = 3:00 s=1 ) 
20.0% time = 32.768014 us ( etc = 12:11, ett = 15:11 ) 
( wall = 3:00 cpu = 3:00 s=1 ) 
20.1% time = 32.932264 us ( etc = 12:23, ett = 15:25 ) 
( wall = 3:02 cpu = 3:02 s=1 ) 
20.2% time = 33.095756 us ( etc = 12:22, ett = 15:25 ) 
( wall = 3:03 cpu = 3:03 s=1 ) 
20.4% time = 33.423791 us ( etc = 12:08, ett = 15:12 ) 
( wall = 3:04 cpu = 3:04 s=1 ) 
20.5% time = 33.587600 us ( etc = 12:20, ett = 15:25 ) 
( wall = 3:05 cpu = 3:05 s=1 ) 
20.6% time = 33.751683 us ( etc = 12:19, ett = 15:25 ) 
( wall = 3:06 cpu = 3:06 s=1 ) 
20.8% time = 34.079208 us ( etc = 12:04, ett = 15:11 ) 
( wall = 3:07 cpu = 3:07 s=1 ) 
20.9% time = 34.242600 us ( etc = 12:03, ett = 15:11 ) 
( wall = 3:08 cpu = 3:08 s=1 ) 
21.0% time = 34.406691 us ( etc = 12:03, ett = 15:12 ) 
( wall = 3:09 cpu = 3:09 s=1 ) 
21.2% time = 34.735100 us ( etc = 12:01, ett = 15:11 ) 
( wall = 3:10 cpu = 3:10 s=1 ) 
21.3% time = 34.897932 us ( etc = 12:00, ett = 15:11 ) 
( wall = 3:11 cpu = 3:11 s=1 ) 
21.5% time = 35.225628 us ( etc = 11:46, ett = 14:58 ) 
( wall = 3:12 cpu = 3:12 s=1 ) 
21.6% time = 35.390100 us ( etc = 11:45, ett = 14:58 ) 
( wall = 3:13 cpu = 3:13 s=1 ) 
21.8% time = 35.717600 us ( etc = 11:32, ett = 14:46 ) 
( wall = 3:14 cpu = 3:14 s=1 ) 
21.9% time = 35.881200 us ( etc = 11:31, ett = 14:46 ) 
( wall = 3:15 cpu = 3:15 s=1 ) 
22.0% time = 36.045100 us ( etc = 11:30, ett = 14:46 ) 
( wall = 3:16 cpu = 3:16 s=1 ) 
22.2% time = 36.372600 us ( etc = 11:28, ett = 14:45 ) 
( wall = 3:17 cpu = 3:17 s=1 ) 
22.3% time = 36.536423 us ( etc = 11:27, ett = 14:45 ) 
( wall = 3:18 cpu = 3:18 s=1 ) 
22.5% time = 36.864003 us ( etc = 10:50, ett = 14:09 ) 
( wall = 3:19 cpu = 3:19 s=1 ) 
22.6% time = 37.027863 us ( etc = 10:49, ett = 14:09 ) 
( wall = 3:20 cpu = 3:20 s=1 ) 
22.7% time = 37.192129 us ( etc = 10:48, ett = 14:09 ) 
( wall = 3:21 cpu = 3:21 s=1 ) 
22.9% time = 37.519648 us ( etc = 10:36, ett = 13:58 ) 
( wall = 3:22 cpu = 3:22 s=1 ) 
23.0% time = 37.683201 us ( etc = 10:35, ett = 13:58 ) 
( wall = 3:23 cpu = 3:23 s=1 ) 
23.2% time = 38.011249 us ( etc = 10:21, ett = 13:45 ) 
( wall = 3:24 cpu = 3:24 s=1 ) 
23.3% time = 38.175100 us ( etc = 10:20, ett = 13:45 ) 
( wall = 3:25 cpu = 3:25 s=1 ) 
23.4% time = 38.338698 us ( etc = 10:07, ett = 13:33 ) 
( wall = 3:26 cpu = 3:26 s=1 ) 
23.6% time = 38.666343 us ( etc = 9:56, ett = 13:23 ) 
( wall = 3:27 cpu = 3:27 s=1 ) 
23.7% time = 38.830100 us ( etc = 9:56, ett = 13:24 ) 
( wall = 3:28 cpu = 3:28 s=1 ) 
23.9% time = 39.157778 us ( etc = 9:45, ett = 13:14 ) 
( wall = 3:29 cpu = 3:29 s=1 ) 
24.0% time = 39.321836 us ( etc = 9:53, ett = 13:23 ) 
( wall = 3:30 cpu = 3:30 s=1 ) 
24.2% time = 39.650100 us ( etc = 9:43, ett = 13:14 ) 
( wall = 3:31 cpu = 3:31 s=1 ) 
24.3% time = 39.813164 us ( etc = 9:42, ett = 13:14 ) 
( wall = 3:32 cpu = 3:32 s=1 ) 
24.5% time = 40.140823 us ( etc = 9:31, ett = 13:04 ) 
( wall = 3:33 cpu = 3:33 s=1 ) 
24.6% time = 40.305100 us ( etc = 9:40, ett = 13:14 ) 
( wall = 3:34 cpu = 3:34 s=1 ) 
24.8% time = 40.632339 us ( etc = 9:29, ett = 13:04 ) 
( wall = 3:35 cpu = 3:35 s=1 ) 
24.9% time = 40.796370 us ( etc = 9:28, ett = 13:04 ) 
( wall = 3:36 cpu = 3:36 s=1 ) 
25.0% time = 40.960100 us ( etc = 9:28, ett = 13:05 ) 
( wall = 3:37 cpu = 3:37 s=1 ) 
25.2% time = 41.287686 us ( etc = 9:26, ett = 13:04 ) 
( wall = 3:38 cpu = 3:38 s=1 ) 
25.3% time = 41.452119 us ( etc = 9:25, ett = 13:04 ) 
( wall = 3:39 cpu = 3:39 s=1 ) 
25.5% time = 41.779211 us ( etc = 9:15, ett = 12:55 ) 
( wall = 3:40 cpu = 3:40 s=1 ) 
25.6% time = 41.943045 us ( etc = 9:15, ett = 12:56 ) 
( wall = 3:41 cpu = 3:41 s=1 ) 
25.7% time = 42.107071 us ( etc = 9:22, ett = 13:04 ) 
( wall = 3:42 cpu = 3:42 s=1 ) 
25.9% time = 42.435100 us ( etc = 9:12, ett = 12:55 ) 
( wall = 3:43 cpu = 3:43 s=1 ) 
26.0% time = 42.598624 us ( etc = 9:12, ett = 12:56 ) 
( wall = 3:44 cpu = 3:44 s=1 ) 
26.1% time = 42.762335 us ( etc = 9:11, ett = 12:56 ) 
( wall = 3:45 cpu = 3:45 s=1 ) 
26.3% time = 43.090100 us ( etc = 9:01, ett = 12:47 ) 
( wall = 3:46 cpu = 3:46 s=1 ) 
26.4% time = 43.253796 us ( etc = 9:01, ett = 12:48 ) 
( wall = 3:47 cpu = 3:47 s=1 ) 
26.5% time = 43.417601 us ( etc = 9:08, ett = 12:56 ) 
( wall = 3:48 cpu = 3:48 s=1 ) 
26.6% time = 43.582148 us ( etc = 9:07, ett = 12:56 ) 
( wall = 3:49 cpu = 3:49 s=1 ) 
26.8% time = 43.909638 us ( etc = 8:58, ett = 12:48 ) 
( wall = 3:50 cpu = 3:50 s=1 ) 
26.9% time = 44.072964 us ( etc = 9:08, ett = 12:59 ) 
( wall = 3:51 cpu = 3:51 s=1 ) 
27.0% time = 44.236982 us ( etc = 8:56, ett = 12:48 ) 
( wall = 3:52 cpu = 3:52 s=1 ) 
27.2% time = 44.564625 us ( etc = 8:47, ett = 12:40 ) 
( wall = 3:53 cpu = 3:53 s=1 ) 
27.3% time = 44.728541 us ( etc = 8:54, ett = 12:48 ) 
( wall = 3:54 cpu = 3:54 s=1 ) 
27.4% time = 44.892200 us ( etc = 8:53, ett = 12:48 ) 
( wall = 3:55 cpu = 3:55 s=1 ) 
27.5% time = 45.056141 us ( etc = 8:53, ett = 12:49 ) 
( wall = 3:56 cpu = 3:56 s=1 ) 
27.7% time = 45.383957 us ( etc = 8:51, ett = 12:48 ) 
( wall = 3:57 cpu = 3:57 s=1 ) 
27.8% time = 45.547600 us ( etc = 8:50, ett = 12:48 ) 
( wall = 3:58 cpu = 3:58 s=1 ) 
27.9% time = 45.711612 us ( etc = 8:50, ett = 12:49 ) 
( wall = 3:59 cpu = 3:59 s=1 ) 
28.0% time = 45.875201 us ( etc = 8:57, ett = 12:57 ) 
( wall = 4:00 cpu = 4:00 s=1 ) 
28.2% time = 46.202885 us ( etc = 8:47, ett = 12:48 ) 
( wall = 4:01 cpu = 4:01 s=1 ) 
28.3% time = 46.367273 us ( etc = 8:55, ett = 12:57 ) 
( wall = 4:02 cpu = 4:02 s=1 ) 
28.4% time = 46.530612 us ( etc = 8:54, ett = 12:57 ) 
( wall = 4:03 cpu = 4:03 s=1 ) 
28.5% time = 46.694644 us ( etc = 9:01, ett = 13:05 ) 
( wall = 4:04 cpu = 4:04 s=1 ) 
28.7% time = 47.022270 us ( etc = 8:52, ett = 12:57 ) 
( wall = 4:05 cpu = 4:05 s=1 ) 
28.8% time = 47.185939 us ( etc = 8:51, ett = 12:57 ) 
( wall = 4:06 cpu = 4:06 s=1 ) 
28.9% time = 47.350100 us ( etc = 8:58, ett = 13:05 ) 
( wall = 4:07 cpu = 4:07 s=1 ) 
29.0% time = 47.513857 us ( etc = 8:57, ett = 13:05 ) 
( wall = 4:08 cpu = 4:08 s=1 ) 
29.2% time = 47.841315 us ( etc = 8:56, ett = 13:05 ) 
( wall = 4:09 cpu = 4:09 s=1 ) 
29.3% time = 48.005132 us ( etc = 8:55, ett = 13:05 ) 
( wall = 4:10 cpu = 4:10 s=1 ) 
29.4% time = 48.169345 us ( etc = 8:54, ett = 13:05 ) 
( wall = 4:11 cpu = 4:11 s=1 ) 
29.6% time = 48.496851 us ( etc = 8:53, ett = 13:05 ) 
( wall = 4:12 cpu = 4:12 s=1 ) 
29.7% time = 48.660483 us ( etc = 8:52, ett = 13:05 ) 
( wall = 4:13 cpu = 4:13 s=1 ) 
29.8% time = 48.824644 us ( etc = 9:00, ett = 13:14 ) 
( wall = 4:14 cpu = 4:14 s=1 ) 
29.9% time = 48.988198 us ( etc = 8:59, ett = 13:14 ) 
( wall = 4:15 cpu = 4:15 s=1 ) 
30.0% time = 49.152600 us ( etc = 8:47, ett = 13:02 ) 
( wall = 4:15 cpu = 4:15 s=1 ) 
30.1% time = 49.315866 us ( etc = 8:55, ett = 13:11 ) 
( wall = 4:16 cpu = 4:16 s=1 ) 
30.2% time = 49.480100 us ( etc = 8:54, ett = 13:11 ) 
( wall = 4:17 cpu = 4:17 s=1 ) 
30.3% time = 49.643824 us ( etc = 9:24, ett = 13:44 ) 
( wall = 4:20 cpu = 4:20 s=1 ) 
30.5% time = 49.971783 us ( etc = 9:13, ett = 13:34 ) 
( wall = 4:21 cpu = 4:21 s=1 ) 
30.6% time = 50.135100 us ( etc = 9:21, ett = 13:43 ) 
( wall = 4:22 cpu = 4:22 s=1 ) 
30.7% time = 50.299109 us ( etc = 9:21, ett = 13:44 ) 
( wall = 4:23 cpu = 4:23 s=1 ) 
30.9% time = 50.627040 us ( etc = 9:19, ett = 13:43 ) 
( wall = 4:24 cpu = 4:24 s=1 ) 
31.0% time = 50.790411 us ( etc = 9:18, ett = 13:43 ) 
( wall = 4:25 cpu = 4:25 s=1 ) 
31.1% time = 50.954539 us ( etc = 9:26, ett = 13:52 ) 
( wall = 4:26 cpu = 4:26 s=1 ) 
31.2% time = 51.118085 us ( etc = 9:25, ett = 13:52 ) 
( wall = 4:27 cpu = 4:27 s=1 ) 
31.3% time = 51.282600 us ( etc = 9:25, ett = 13:53 ) 
( wall = 4:28 cpu = 4:28 s=1 ) 
31.5% time = 51.609633 us ( etc = 9:23, ett = 13:52 ) 
( wall = 4:29 cpu = 4:29 s=1 ) 
31.6% time = 51.773475 us ( etc = 9:22, ett = 13:52 ) 
( wall = 4:30 cpu = 4:30 s=1 ) 
31.7% time = 51.937600 us ( etc = 9:31, ett = 14:02 ) 
( wall = 4:31 cpu = 4:31 s=1 ) 
31.9% time = 52.265100 us ( etc = 9:20, ett = 13:52 ) 
( wall = 4:32 cpu = 4:32 s=1 ) 
32.0% time = 52.429030 us ( etc = 9:19, ett = 13:52 ) 
( wall = 4:33 cpu = 4:33 s=1 ) 
32.1% time = 52.592641 us ( etc = 9:27, ett = 14:01 ) 
( wall = 4:34 cpu = 4:34 s=1 ) 
32.3% time = 52.920327 us ( etc = 9:16, ett = 13:51 ) 
( wall = 4:35 cpu = 4:35 s=1 ) 
32.4% time = 53.084495 us ( etc = 9:16, ett = 13:52 ) 
( wall = 4:36 cpu = 4:36 s=1 ) 
32.5% time = 53.248013 us ( etc = 9:24, ett = 14:01 ) 
( wall = 4:37 cpu = 4:37 s=1 ) 
32.6% time = 53.412265 us ( etc = 9:23, ett = 14:01 ) 
( wall = 4:38 cpu = 4:38 s=1 ) 
32.7% time = 53.575837 us ( etc = 9:22, ett = 14:01 ) 
( wall = 4:39 cpu = 4:39 s=1 ) 
32.8% time = 53.740100 us ( etc = 9:21, ett = 14:01 ) 
( wall = 4:40 cpu = 4:40 s=1 ) 
33.0% time = 54.067600 us ( etc = 9:20, ett = 14:01 ) 
( wall = 4:41 cpu = 4:41 s=1 ) 
33.1% time = 54.231410 us ( etc = 9:19, ett = 14:01 ) 
( wall = 4:42 cpu = 4:42 s=1 ) 
33.2% time = 54.395100 us ( etc = 9:18, ett = 14:01 ) 
( wall = 4:43 cpu = 4:43 s=1 ) 
33.4% time = 54.722600 us ( etc = 9:16, ett = 14:00 ) 
( wall = 4:44 cpu = 4:44 s=1 ) 
33.5% time = 54.886691 us ( etc = 9:15, ett = 14:00 ) 
( wall = 4:45 cpu = 4:45 s=1 ) 
33.6% time = 55.050247 us ( etc = 9:15, ett = 14:01 ) 
( wall = 4:46 cpu = 4:46 s=1 ) 
33.7% time = 55.215100 us ( etc = 9:14, ett = 14:01 ) 
( wall = 4:47 cpu = 4:47 s=1 ) 
33.9% time = 55.542116 us ( etc = 9:12, ett = 14:00 ) 
( wall = 4:48 cpu = 4:48 s=1 ) 
34.0% time = 55.705627 us ( etc = 9:11, ett = 14:00 ) 
( wall = 4:49 cpu = 4:49 s=1 ) 
34.1% time = 55.870100 us ( etc = 9:10, ett = 14:00 ) 
( wall = 4:50 cpu = 4:50 s=1 ) 
34.2% time = 56.033546 us ( etc = 9:10, ett = 14:01 ) 
( wall = 4:51 cpu = 4:51 s=1 ) 
34.3% time = 56.197600 us ( etc = 9:18, ett = 14:10 ) 
( wall = 4:52 cpu = 4:52 s=1 ) 
34.5% time = 56.525100 us ( etc = 9:07, ett = 14:00 ) 
( wall = 4:53 cpu = 4:53 s=1 ) 
34.6% time = 56.688779 us ( etc = 9:06, ett = 14:00 ) 
( wall = 4:54 cpu = 4:54 s=1 ) 
34.7% time = 56.852600 us ( etc = 9:05, ett = 14:00 ) 
( wall = 4:55 cpu = 4:55 s=1 ) 
34.8% time = 57.016402 us ( etc = 9:14, ett = 14:10 ) 
( wall = 4:56 cpu = 4:56 s=1 ) 
35.0% time = 57.344006 us ( etc = 9:03, ett = 14:00 ) 
( wall = 4:57 cpu = 4:57 s=1 ) 
35.1% time = 57.507858 us ( etc = 9:02, ett = 14:00 ) 
( wall = 4:58 cpu = 4:58 s=1 ) 
35.2% time = 57.672131 us ( etc = 9:01, ett = 14:00 ) 
( wall = 4:59 cpu = 4:59 s=1 ) 
35.4% time = 57.999606 us ( etc = 9:00, ett = 14:00 ) 
( wall = 5:00 cpu = 5:00 s=1 ) 
35.5% time = 58.163407 us ( etc = 8:59, ett = 14:00 ) 
( wall = 5:01 cpu = 5:01 s=1 ) 
35.6% time = 58.327322 us ( etc = 8:58, ett = 14:00 ) 
( wall = 5:02 cpu = 5:02 s=1 ) 
35.7% time = 58.490969 us ( etc = 9:06, ett = 14:09 ) 
( wall = 5:03 cpu = 5:03 s=1 ) 
35.8% time = 58.655100 us ( etc = 9:05, ett = 14:09 ) 
( wall = 5:04 cpu = 5:04 s=1 ) 
36.0% time = 58.982600 us ( etc = 8:55, ett = 14:00 ) 
( wall = 5:05 cpu = 5:05 s=1 ) 
36.1% time = 59.146328 us ( etc = 8:54, ett = 14:00 ) 
( wall = 5:06 cpu = 5:06 s=1 ) 
36.2% time = 59.310100 us ( etc = 9:03, ett = 14:10 ) 
( wall = 5:07 cpu = 5:07 s=1 ) 
36.4% time = 59.637762 us ( etc = 8:53, ett = 14:01 ) 
( wall = 5:08 cpu = 5:08 s=1 ) 
36.5% time = 59.802236 us ( etc = 8:52, ett = 14:01 ) 
( wall = 5:09 cpu = 5:09 s=1 ) 
36.6% time = 59.965452 us ( etc = 8:31, ett = 13:41 ) 
( wall = 5:10 cpu = 5:10 s=1 ) 
36.7% time = 60.129803 us ( etc = 8:38, ett = 13:49 ) 
( wall = 5:11 cpu = 5:11 s=1 ) 
36.9% time = 60.456999 us ( etc = 8:28, ett = 13:40 ) 
( wall = 5:12 cpu = 5:12 s=1 ) 
37.0% time = 60.620823 us ( etc = 8:28, ett = 13:41 ) 
( wall = 5:13 cpu = 5:13 s=1 ) 
37.1% time = 60.784653 us ( etc = 8:35, ett = 13:49 ) 
( wall = 5:14 cpu = 5:14 s=1 ) 
37.2% time = 60.948788 us ( etc = 8:34, ett = 13:49 ) 
( wall = 5:15 cpu = 5:15 s=1 ) 
37.4% time = 61.276555 us ( etc = 8:24, ett = 13:40 ) 
( wall = 5:16 cpu = 5:16 s=1 ) 
37.5% time = 61.440100 us ( etc = 8:24, ett = 13:41 ) 
( wall = 5:17 cpu = 5:17 s=1 ) 
37.6% time = 61.604191 us ( etc = 8:23, ett = 13:41 ) 
( wall = 5:18 cpu = 5:18 s=1 ) 
37.7% time = 61.767686 us ( etc = 8:30, ett = 13:49 ) 
( wall = 5:19 cpu = 5:19 s=1 ) 
37.9% time = 62.095362 us ( etc = 8:20, ett = 13:40 ) 
( wall = 5:20 cpu = 5:20 s=1 ) 
38.0% time = 62.260100 us ( etc = 8:20, ett = 13:41 ) 
( wall = 5:21 cpu = 5:21 s=1 ) 
38.1% time = 62.423044 us ( etc = 8:27, ett = 13:49 ) 
( wall = 5:22 cpu = 5:22 s=1 ) 
38.3% time = 62.750779 us ( etc = 8:17, ett = 13:40 ) 
( wall = 5:23 cpu = 5:23 s=1 ) 
38.4% time = 62.915100 us ( etc = 8:16, ett = 13:40 ) 
( wall = 5:24 cpu = 5:24 s=1 ) 
38.5% time = 63.078506 us ( etc = 8:24, ett = 13:49 ) 
( wall = 5:25 cpu = 5:25 s=1 ) 
38.6% time = 63.242600 us ( etc = 8:23, ett = 13:49 ) 
( wall = 5:26 cpu = 5:26 s=1 ) 
38.7% time = 63.406195 us ( etc = 8:22, ett = 13:49 ) 
( wall = 5:27 cpu = 5:27 s=1 ) 
38.9% time = 63.733798 us ( etc = 8:12, ett = 13:40 ) 
( wall = 5:28 cpu = 5:28 s=1 ) 
39.0% time = 63.897601 us ( etc = 8:11, ett = 13:40 ) 
( wall = 5:29 cpu = 5:29 s=1 ) 
39.1% time = 64.061728 us ( etc = 8:11, ett = 13:41 ) 
( wall = 5:30 cpu = 5:30 s=1 ) 
39.2% time = 64.225291 us ( etc = 8:18, ett = 13:49 ) 
( wall = 5:31 cpu = 5:31 s=1 ) 
39.3% time = 64.389641 us ( etc = 8:17, ett = 13:49 ) 
( wall = 5:32 cpu = 5:32 s=1 ) 
39.5% time = 64.717039 us ( etc = 8:07, ett = 13:40 ) 
( wall = 5:33 cpu = 5:33 s=1 ) 
39.6% time = 64.880652 us ( etc = 8:15, ett = 13:49 ) 
( wall = 5:34 cpu = 5:34 s=1 ) 
39.7% time = 65.045100 us ( etc = 8:14, ett = 13:49 ) 
( wall = 5:35 cpu = 5:35 s=1 ) 
39.8% time = 65.208364 us ( etc = 8:13, ett = 13:49 ) 
( wall = 5:36 cpu = 5:36 s=1 ) 
40.0% time = 65.536044 us ( etc = 8:03, ett = 13:40 ) 
( wall = 5:37 cpu = 5:37 s=1 ) 
40.1% time = 65.700100 us ( etc = 8:10, ett = 13:48 ) 
( wall = 5:38 cpu = 5:38 s=1 ) 
40.2% time = 65.863775 us ( etc = 8:10, ett = 13:49 ) 
( wall = 5:39 cpu = 5:39 s=1 ) 
40.3% time = 66.027600 us ( etc = 8:09, ett = 13:49 ) 
( wall = 5:40 cpu = 5:40 s=1 ) 
40.4% time = 66.191421 us ( etc = 8:08, ett = 13:49 ) 
( wall = 5:41 cpu = 5:41 s=1 ) 
40.5% time = 66.355201 us ( etc = 8:07, ett = 13:49 ) 
( wall = 5:42 cpu = 5:42 s=1 ) 
40.6% time = 66.519511 us ( etc = 8:15, ett = 13:58 ) 
( wall = 5:43 cpu = 5:43 s=1 ) 
40.8% time = 66.847600 us ( etc = 8:05, ett = 13:49 ) 
( wall = 5:44 cpu = 5:44 s=1 ) 
40.9% time = 67.010572 us ( etc = 8:04, ett = 13:49 ) 
( wall = 5:45 cpu = 5:45 s=1 ) 
41.0% time = 67.174642 us ( etc = 8:03, ett = 13:49 ) 
( wall = 5:46 cpu = 5:46 s=1 ) 
41.1% time = 67.338497 us ( etc = 8:10, ett = 13:57 ) 
( wall = 5:47 cpu = 5:47 s=1 ) 
41.3% time = 67.666077 us ( etc = 8:01, ett = 13:49 ) 
( wall = 5:48 cpu = 5:48 s=1 ) 
41.4% time = 67.830100 us ( etc = 8:00, ett = 13:49 ) 
( wall = 5:49 cpu = 5:49 s=1 ) 
41.5% time = 67.993709 us ( etc = 8:07, ett = 13:57 ) 
( wall = 5:50 cpu = 5:50 s=1 ) 
41.6% time = 68.157600 us ( etc = 8:06, ett = 13:57 ) 
( wall = 5:51 cpu = 5:51 s=1 ) 
41.8% time = 68.485132 us ( etc = 7:57, ett = 13:49 ) 
( wall = 5:52 cpu = 5:52 s=1 ) 
41.9% time = 68.649489 us ( etc = 7:56, ett = 13:49 ) 
( wall = 5:53 cpu = 5:53 s=1 ) 
42.0% time = 68.812817 us ( etc = 7:55, ett = 13:49 ) 
( wall = 5:54 cpu = 5:54 s=1 ) 
42.1% time = 68.976662 us ( etc = 8:02, ett = 13:57 ) 
( wall = 5:55 cpu = 5:55 s=1 ) 
42.3% time = 69.304644 us ( etc = 7:52, ett = 13:48 ) 
( wall = 5:56 cpu = 5:56 s=1 ) 
42.4% time = 69.468267 us ( etc = 7:52, ett = 13:49 ) 
( wall = 5:57 cpu = 5:57 s=1 ) 
42.5% time = 69.632600 us ( etc = 7:59, ett = 13:57 ) 
( wall = 5:58 cpu = 5:58 s=1 ) 
42.6% time = 69.796041 us ( etc = 7:58, ett = 13:57 ) 
( wall = 5:59 cpu = 5:59 s=1 ) 
42.8% time = 70.123563 us ( etc = 7:48, ett = 13:48 ) 
( wall = 6:00 cpu = 6:00 s=1 ) 
42.9% time = 70.287600 us ( etc = 7:48, ett = 13:49 ) 
( wall = 6:01 cpu = 6:01 s=1 ) 
43.0% time = 70.451702 us ( etc = 7:55, ett = 13:57 ) 
( wall = 6:02 cpu = 6:02 s=1 ) 
43.1% time = 70.615100 us ( etc = 7:54, ett = 13:57 ) 
( wall = 6:03 cpu = 6:03 s=1 ) 
43.3% time = 70.942732 us ( etc = 7:44, ett = 13:48 ) 
( wall = 6:04 cpu = 6:04 s=1 ) 
43.4% time = 71.106996 us ( etc = 7:43, ett = 13:48 ) 
( wall = 6:05 cpu = 6:05 s=1 ) 
43.5% time = 71.270405 us ( etc = 7:50, ett = 13:56 ) 
( wall = 6:06 cpu = 6:06 s=1 ) 
43.6% time = 71.434602 us ( etc = 7:50, ett = 13:57 ) 
( wall = 6:07 cpu = 6:07 s=1 ) 
43.7% time = 71.598084 us ( etc = 7:49, ett = 13:57 ) 
( wall = 6:08 cpu = 6:08 s=1 ) 
43.8% time = 71.762321 us ( etc = 7:48, ett = 13:57 ) 
( wall = 6:09 cpu = 6:09 s=1 ) 
44.0% time = 72.089641 us ( etc = 7:46, ett = 13:56 ) 
( wall = 6:10 cpu = 6:10 s=1 ) 
44.1% time = 72.253475 us ( etc = 7:45, ett = 13:56 ) 
( wall = 6:11 cpu = 6:11 s=1 ) 
44.2% time = 72.417600 us ( etc = 7:45, ett = 13:57 ) 
( wall = 6:12 cpu = 6:12 s=1 ) 
44.4% time = 72.745100 us ( etc = 7:43, ett = 13:56 ) 
( wall = 6:13 cpu = 6:13 s=1 ) 
44.5% time = 72.909186 us ( etc = 7:42, ett = 13:56 ) 
( wall = 6:14 cpu = 6:14 s=1 ) 
44.6% time = 73.072641 us ( etc = 7:41, ett = 13:56 ) 
( wall = 6:15 cpu = 6:15 s=1 ) 
44.8% time = 73.400330 us ( etc = 7:32, ett = 13:48 ) 
( wall = 6:16 cpu = 6:16 s=1 ) 
44.9% time = 73.564387 us ( etc = 7:31, ett = 13:48 ) 
( wall = 6:17 cpu = 6:17 s=1 ) 
45.0% time = 73.728013 us ( etc = 7:38, ett = 13:56 ) 
( wall = 6:18 cpu = 6:18 s=1 ) 
45.2% time = 74.055712 us ( etc = 7:29, ett = 13:48 ) 
( wall = 6:19 cpu = 6:19 s=1 ) 
45.3% time = 74.220100 us ( etc = 7:28, ett = 13:48 ) 
( wall = 6:20 cpu = 6:20 s=1 ) 
45.4% time = 74.383792 us ( etc = 7:27, ett = 13:48 ) 
( wall = 6:21 cpu = 6:21 s=1 ) 
45.5% time = 74.547600 us ( etc = 7:26, ett = 13:48 ) 
( wall = 6:22 cpu = 6:22 s=1 ) 
45.7% time = 74.875100 us ( etc = 7:25, ett = 13:48 ) 
( wall = 6:23 cpu = 6:23 s=1 ) 
45.8% time = 75.039212 us ( etc = 7:24, ett = 13:48 ) 
( wall = 6:24 cpu = 6:24 s=1 ) 
45.9% time = 75.202600 us ( etc = 7:23, ett = 13:48 ) 
( wall = 6:25 cpu = 6:25 s=1 ) 
46.1% time = 75.530247 us ( etc = 7:14, ett = 13:40 ) 
( wall = 6:26 cpu = 6:26 s=1 ) 
46.2% time = 75.695100 us ( etc = 7:20, ett = 13:47 ) 
( wall = 6:27 cpu = 6:27 s=1 ) 
46.3% time = 75.857931 us ( etc = 7:20, ett = 13:48 ) 
( wall = 6:28 cpu = 6:28 s=1 ) 
46.5% time = 76.185710 us ( etc = 7:11, ett = 13:40 ) 
( wall = 6:29 cpu = 6:29 s=1 ) 
46.6% time = 76.350100 us ( etc = 7:10, ett = 13:40 ) 
( wall = 6:30 cpu = 6:30 s=1 ) 
46.7% time = 76.513346 us ( etc = 7:09, ett = 13:40 ) 
( wall = 6:31 cpu = 6:31 s=1 ) 
46.8% time = 76.677151 us ( etc = 7:09, ett = 13:41 ) 
( wall = 6:32 cpu = 6:32 s=1 ) 
47.0% time = 77.005100 us ( etc = 7:00, ett = 13:33 ) 
( wall = 6:33 cpu = 6:33 s=1 ) 
47.1% time = 77.169001 us ( etc = 7:06, ett = 13:40 ) 
( wall = 6:34 cpu = 6:34 s=1 ) 
47.2% time = 77.332600 us ( etc = 7:05, ett = 13:40 ) 
( wall = 6:35 cpu = 6:35 s=1 ) 
47.4% time = 77.660180 us ( etc = 6:57, ett = 13:33 ) 
( wall = 6:36 cpu = 6:36 s=1 ) 
47.5% time = 77.824677 us ( etc = 6:56, ett = 13:33 ) 
( wall = 6:37 cpu = 6:37 s=1 ) 
47.6% time = 77.987858 us ( etc = 7:02, ett = 13:40 ) 
( wall = 6:38 cpu = 6:38 s=1 ) 
47.8% time = 78.315531 us ( etc = 6:54, ett = 13:33 ) 
( wall = 6:39 cpu = 6:39 s=1 ) 
47.9% time = 78.480100 us ( etc = 6:53, ett = 13:33 ) 
( wall = 6:40 cpu = 6:40 s=1 ) 
48.0% time = 78.643477 us ( etc = 6:52, ett = 13:33 ) 
( wall = 6:41 cpu = 6:41 s=1 ) 
48.1% time = 78.807322 us ( etc = 6:58, ett = 13:40 ) 
( wall = 6:42 cpu = 6:42 s=1 ) 
48.3% time = 79.135100 us ( etc = 6:50, ett = 13:33 ) 
( wall = 6:43 cpu = 6:43 s=1 ) 
48.4% time = 79.298732 us ( etc = 6:49, ett = 13:33 ) 
( wall = 6:44 cpu = 6:44 s=1 ) 
48.5% time = 79.462600 us ( etc = 6:48, ett = 13:33 ) 
( wall = 6:45 cpu = 6:45 s=1 ) 
48.7% time = 79.790100 us ( etc = 6:47, ett = 13:33 ) 
( wall = 6:46 cpu = 6:46 s=1 ) 
48.8% time = 79.954226 us ( etc = 6:46, ett = 13:33 ) 
( wall = 6:47 cpu = 6:47 s=1 ) 
49.0% time = 80.281807 us ( etc = 6:38, ett = 13:26 ) 
( wall = 6:48 cpu = 6:48 s=1 ) 
49.1% time = 80.445454 us ( etc = 6:37, ett = 13:26 ) 
( wall = 6:49 cpu = 6:49 s=1 ) 
49.3% time = 80.773360 us ( etc = 6:36, ett = 13:26 ) 
( wall = 6:50 cpu = 6:50 s=1 ) 
49.4% time = 80.937019 us ( etc = 6:35, ett = 13:26 ) 
( wall = 6:51 cpu = 6:51 s=1 ) 
49.6% time = 81.265100 us ( etc = 6:27, ett = 13:19 ) 
( wall = 6:52 cpu = 6:52 s=1 ) 
49.7% time = 81.428545 us ( etc = 6:26, ett = 13:19 ) 
( wall = 6:53 cpu = 6:53 s=1 ) 
49.8% time = 81.592386 us ( etc = 6:32, ett = 13:26 ) 
( wall = 6:54 cpu = 6:54 s=1 ) 
50.0% time = 81.920100 us ( etc = 6:24, ett = 13:19 ) 
( wall = 6:55 cpu = 6:55 s=1 ) 
50.1% time = 82.083902 us ( etc = 6:23, ett = 13:19 ) 
( wall = 6:56 cpu = 6:56 s=1 ) 
50.3% time = 82.411985 us ( etc = 6:16, ett = 13:13 ) 
( wall = 6:57 cpu = 6:57 s=1 ) 
50.4% time = 82.575361 us ( etc = 6:15, ett = 13:13 ) 
( wall = 6:58 cpu = 6:58 s=1 ) 
50.6% time = 82.903047 us ( etc = 6:08, ett = 13:07 ) 
( wall = 6:59 cpu = 6:59 s=1 ) 
50.7% time = 83.067068 us ( etc = 6:13, ett = 13:13 ) 
( wall = 7:00 cpu = 7:00 s=1 ) 
50.8% time = 83.230811 us ( etc = 6:12, ett = 13:13 ) 
( wall = 7:01 cpu = 7:01 s=1 ) 
51.0% time = 83.558670 us ( etc = 6:05, ett = 13:07 ) 
( wall = 7:02 cpu = 7:02 s=1 ) 
51.2% time = 83.886463 us ( etc = 6:04, ett = 13:07 ) 
( wall = 7:03 cpu = 7:03 s=1 ) 
51.3% time = 84.050100 us ( etc = 6:03, ett = 13:07 ) 
( wall = 7:04 cpu = 7:04 s=1 ) 
51.4% time = 84.214607 us ( etc = 6:02, ett = 13:07 ) 
( wall = 7:05 cpu = 7:05 s=1 ) 
51.6% time = 84.541457 us ( etc = 6:01, ett = 13:07 ) 
( wall = 7:06 cpu = 7:06 s=1 ) 
51.7% time = 84.705291 us ( etc = 6:00, ett = 13:07 ) 
( wall = 7:07 cpu = 7:07 s=1 ) 
51.9% time = 85.032963 us ( etc = 5:53, ett = 13:01 ) 
( wall = 7:08 cpu = 7:08 s=1 ) 
52.0% time = 85.197232 us ( etc = 5:58, ett = 13:07 ) 
( wall = 7:09 cpu = 7:09 s=1 ) 
52.2% time = 85.525100 us ( etc = 5:51, ett = 13:01 ) 
( wall = 7:10 cpu = 7:10 s=1 ) 
52.3% time = 85.688364 us ( etc = 5:50, ett = 13:01 ) 
( wall = 7:11 cpu = 7:11 s=1 ) 
52.4% time = 85.852184 us ( etc = 5:50, ett = 13:02 ) 
( wall = 7:12 cpu = 7:12 s=1 ) 
52.6% time = 86.180100 us ( etc = 5:48, ett = 13:01 ) 
( wall = 7:13 cpu = 7:13 s=1 ) 
52.7% time = 86.343959 us ( etc = 5:47, ett = 13:01 ) 
( wall = 7:14 cpu = 7:14 s=1 ) 
52.9% time = 86.671442 us ( etc = 5:41, ett = 12:56 ) 
( wall = 7:15 cpu = 7:15 s=1 ) 
53.0% time = 86.835200 us ( etc = 5:45, ett = 13:01 ) 
( wall = 7:16 cpu = 7:16 s=1 ) 
53.1% time = 86.999515 us ( etc = 5:44, ett = 13:01 ) 
( wall = 7:17 cpu = 7:17 s=1 ) 
53.3% time = 87.326768 us ( etc = 5:38, ett = 12:56 ) 
( wall = 7:18 cpu = 7:18 s=1 ) 
53.4% time = 87.490599 us ( etc = 5:42, ett = 13:01 ) 
( wall = 7:19 cpu = 7:19 s=1 ) 
53.6% time = 87.818325 us ( etc = 5:36, ett = 12:56 ) 
( wall = 7:20 cpu = 7:20 s=1 ) 
53.7% time = 87.982600 us ( etc = 5:35, ett = 12:56 ) 
( wall = 7:21 cpu = 7:21 s=1 ) 
53.9% time = 88.310100 us ( etc = 5:29, ett = 12:51 ) 
( wall = 7:22 cpu = 7:22 s=1 ) 
54.0% time = 88.473950 us ( etc = 5:33, ett = 12:56 ) 
( wall = 7:23 cpu = 7:23 s=1 ) 
54.2% time = 88.801290 us ( etc = 5:27, ett = 12:51 ) 
( wall = 7:24 cpu = 7:24 s=1 ) 
54.3% time = 88.965132 us ( etc = 5:26, ett = 12:51 ) 
( wall = 7:25 cpu = 7:25 s=1 ) 
54.5% time = 89.292801 us ( etc = 5:25, ett = 12:51 ) 
( wall = 7:26 cpu = 7:26 s=1 ) 
54.6% time = 89.456986 us ( etc = 5:24, ett = 12:51 ) 
( wall = 7:27 cpu = 7:27 s=1 ) 
54.7% time = 89.620482 us ( etc = 5:23, ett = 12:51 ) 
( wall = 7:28 cpu = 7:28 s=1 ) 
54.9% time = 89.948200 us ( etc = 5:22, ett = 12:51 ) 
( wall = 7:29 cpu = 7:29 s=1 ) 
55.0% time = 90.112114 us ( etc = 5:21, ett = 12:51 ) 
( wall = 7:30 cpu = 7:30 s=1 ) 
55.1% time = 90.276037 us ( etc = 5:20, ett = 12:51 ) 
( wall = 7:31 cpu = 7:31 s=1 ) 
55.3% time = 90.603567 us ( etc = 5:14, ett = 12:46 ) 
( wall = 7:32 cpu = 7:32 s=1 ) 
55.4% time = 90.767600 us ( etc = 5:18, ett = 12:51 ) 
( wall = 7:33 cpu = 7:33 s=1 ) 
55.6% time = 91.095100 us ( etc = 5:12, ett = 12:46 ) 
( wall = 7:34 cpu = 7:34 s=1 ) 
55.7% time = 91.259642 us ( etc = 5:11, ett = 12:46 ) 
( wall = 7:35 cpu = 7:35 s=1 ) 
55.9% time = 91.586766 us ( etc = 5:10, ett = 12:46 ) 
( wall = 7:36 cpu = 7:36 s=1 ) 
56.0% time = 91.750411 us ( etc = 5:09, ett = 12:46 ) 
( wall = 7:37 cpu = 7:37 s=1 ) 
56.1% time = 91.914305 us ( etc = 5:13, ett = 12:51 ) 
( wall = 7:38 cpu = 7:38 s=1 ) 
56.2% time = 92.078084 us ( etc = 5:12, ett = 12:51 ) 
( wall = 7:39 cpu = 7:39 s=1 ) 
56.4% time = 92.405881 us ( etc = 5:11, ett = 12:51 ) 
( wall = 7:40 cpu = 7:40 s=1 ) 
56.5% time = 92.569642 us ( etc = 5:10, ett = 12:51 ) 
( wall = 7:41 cpu = 7:41 s=1 ) 
56.7% time = 92.897600 us ( etc = 5:15, ett = 12:58 ) 
( wall = 7:43 cpu = 7:43 s=1 ) 
56.9% time = 93.225100 us ( etc = 5:09, ett = 12:53 ) 
( wall = 7:44 cpu = 7:44 s=1 ) 
57.0% time = 93.388917 us ( etc = 5:08, ett = 12:53 ) 
( wall = 7:45 cpu = 7:45 s=1 ) 
57.1% time = 93.552642 us ( etc = 5:12, ett = 12:58 ) 
( wall = 7:46 cpu = 7:46 s=1 ) 
57.3% time = 93.880324 us ( etc = 5:06, ett = 12:53 ) 
( wall = 7:47 cpu = 7:47 s=1 ) 
57.4% time = 94.045100 us ( etc = 5:10, ett = 12:58 ) 
( wall = 7:48 cpu = 7:48 s=1 ) 
57.5% time = 94.208011 us ( etc = 5:09, ett = 12:58 ) 
( wall = 7:49 cpu = 7:49 s=1 ) 
57.7% time = 94.535710 us ( etc = 5:08, ett = 12:58 ) 
( wall = 7:50 cpu = 7:50 s=1 ) 
57.8% time = 94.700100 us ( etc = 5:07, ett = 12:58 ) 
( wall = 7:51 cpu = 7:51 s=1 ) 
57.9% time = 94.863792 us ( etc = 5:06, ett = 12:58 ) 
( wall = 7:52 cpu = 7:52 s=1 ) 
58.0% time = 95.027308 us ( etc = 5:10, ett = 13:03 ) 
( wall = 7:53 cpu = 7:53 s=1 ) 
58.2% time = 95.355100 us ( etc = 5:08, ett = 13:02 ) 
( wall = 7:54 cpu = 7:54 s=1 ) 
58.3% time = 95.519047 us ( etc = 5:08, ett = 13:03 ) 
( wall = 7:55 cpu = 7:55 s=1 ) 
58.4% time = 95.682600 us ( etc = 5:07, ett = 13:03 ) 
( wall = 7:56 cpu = 7:56 s=1 ) 
58.6% time = 96.010243 us ( etc = 5:06, ett = 13:03 ) 
( wall = 7:57 cpu = 7:57 s=1 ) 
58.7% time = 96.175100 us ( etc = 5:05, ett = 13:03 ) 
( wall = 7:58 cpu = 7:58 s=1 ) 
58.8% time = 96.337928 us ( etc = 5:09, ett = 13:08 ) 
( wall = 7:59 cpu = 7:59 s=1 ) 
59.0% time = 96.665628 us ( etc = 5:03, ett = 13:03 ) 
( wall = 8:00 cpu = 8:00 s=1 ) 
59.1% time = 96.830100 us ( etc = 5:06, ett = 13:07 ) 
( wall = 8:01 cpu = 8:01 s=1 ) 
59.2% time = 96.993286 us ( etc = 5:06, ett = 13:08 ) 
( wall = 8:02 cpu = 8:02 s=1 ) 
59.3% time = 97.157600 us ( etc = 5:05, ett = 13:08 ) 
( wall = 8:03 cpu = 8:03 s=1 ) 
59.5% time = 97.485100 us ( etc = 5:03, ett = 13:07 ) 
( wall = 8:04 cpu = 8:04 s=1 ) 
59.6% time = 97.648738 us ( etc = 5:03, ett = 13:08 ) 
( wall = 8:05 cpu = 8:05 s=1 ) 
59.7% time = 97.812600 us ( etc = 5:06, ett = 13:12 ) 
( wall = 8:06 cpu = 8:06 s=1 ) 
59.9% time = 98.140180 us ( etc = 5:00, ett = 13:07 ) 
( wall = 8:07 cpu = 8:07 s=1 ) 
60.0% time = 98.304108 us ( etc = 5:00, ett = 13:08 ) 
( wall = 8:08 cpu = 8:08 s=1 ) 
60.1% time = 98.467858 us ( etc = 5:03, ett = 13:12 ) 
( wall = 8:09 cpu = 8:09 s=1 ) 
60.3% time = 98.795535 us ( etc = 4:57, ett = 13:07 ) 
( wall = 8:10 cpu = 8:10 s=1 ) 
60.4% time = 98.959458 us ( etc = 5:01, ett = 13:12 ) 
( wall = 8:11 cpu = 8:11 s=1 ) 
60.5% time = 99.123200 us ( etc = 5:00, ett = 13:12 ) 
( wall = 8:12 cpu = 8:12 s=1 ) 
60.7% time = 99.451258 us ( etc = 4:59, ett = 13:12 ) 
( wall = 8:13 cpu = 8:13 s=1 ) 
60.8% time = 99.615100 us ( etc = 4:58, ett = 13:12 ) 
( wall = 8:14 cpu = 8:14 s=1 ) 
60.9% time = 99.778570 us ( etc = 5:02, ett = 13:17 ) 
( wall = 8:15 cpu = 8:15 s=1 ) 
61.0% time = 99.942600 us ( etc = 5:01, ett = 13:17 ) 
( wall = 8:16 cpu = 8:16 s=1 ) 
61.1% time = 100.106516 us ( etc = 5:05, ett = 13:22 ) 
( wall = 8:17 cpu = 8:17 s=1 ) 
61.3% time = 100.434052 us ( etc = 4:59, ett = 13:17 ) 
( wall = 8:18 cpu = 8:18 s=1 ) 
61.4% time = 100.597778 us ( etc = 4:58, ett = 13:17 ) 
( wall = 8:19 cpu = 8:19 s=1 ) 
61.5% time = 100.761691 us ( etc = 5:02, ett = 13:22 ) 
( wall = 8:20 cpu = 8:20 s=1 ) 
61.6% time = 100.925447 us ( etc = 5:01, ett = 13:22 ) 
( wall = 8:21 cpu = 8:21 s=1 ) 
61.8% time = 101.253296 us ( etc = 4:55, ett = 13:17 ) 
( wall = 8:22 cpu = 8:22 s=1 ) 
61.9% time = 101.417600 us ( etc = 4:58, ett = 13:21 ) 
( wall = 8:23 cpu = 8:23 s=1 ) 
62.1% time = 101.744657 us ( etc = 4:52, ett = 13:16 ) 
( wall = 8:24 cpu = 8:24 s=1 ) 
62.2% time = 101.908553 us ( etc = 4:56, ett = 13:21 ) 
( wall = 8:25 cpu = 8:25 s=1 ) 
62.3% time = 102.072346 us ( etc = 4:55, ett = 13:21 ) 
( wall = 8:26 cpu = 8:26 s=1 ) 
62.5% time = 102.400100 us ( etc = 4:54, ett = 13:21 ) 
( wall = 8:27 cpu = 8:27 s=1 ) 
62.6% time = 102.564065 us ( etc = 4:53, ett = 13:21 ) 
( wall = 8:28 cpu = 8:28 s=1 ) 
62.7% time = 102.727686 us ( etc = 4:52, ett = 13:21 ) 
( wall = 8:29 cpu = 8:29 s=1 ) 
62.8% time = 102.891562 us ( etc = 4:51, ett = 13:21 ) 
( wall = 8:30 cpu = 8:30 s=1 ) 
63.0% time = 103.219663 us ( etc = 4:50, ett = 13:21 ) 
( wall = 8:31 cpu = 8:31 s=1 ) 
63.1% time = 103.383060 us ( etc = 4:49, ett = 13:21 ) 
( wall = 8:32 cpu = 8:32 s=1 ) 
63.2% time = 103.547031 us ( etc = 4:47, ett = 13:20 ) 
( wall = 8:33 cpu = 8:33 s=1 ) 
63.4% time = 103.874788 us ( etc = 4:45, ett = 13:19 ) 
( wall = 8:34 cpu = 8:34 s=1 ) 
63.5% time = 104.038477 us ( etc = 4:45, ett = 13:20 ) 
( wall = 8:35 cpu = 8:35 s=1 ) 
63.6% time = 104.202313 us ( etc = 4:44, ett = 13:20 ) 
( wall = 8:36 cpu = 8:36 s=1 ) 
63.8% time = 104.530100 us ( etc = 4:42, ett = 13:19 ) 
( wall = 8:37 cpu = 8:37 s=1 ) 
63.9% time = 104.693981 us ( etc = 4:42, ett = 13:20 ) 
( wall = 8:38 cpu = 8:38 s=1 ) 
64.0% time = 104.857600 us ( etc = 4:41, ett = 13:20 ) 
( wall = 8:39 cpu = 8:39 s=1 ) 
64.1% time = 105.021469 us ( etc = 4:44, ett = 13:24 ) 
( wall = 8:40 cpu = 8:40 s=1 ) 
64.3% time = 105.349641 us ( etc = 4:38, ett = 13:19 ) 
( wall = 8:41 cpu = 8:41 s=1 ) 
64.4% time = 105.512963 us ( etc = 4:38, ett = 13:20 ) 
( wall = 8:42 cpu = 8:42 s=1 ) 
64.5% time = 105.677182 us ( etc = 4:37, ett = 13:20 ) 
( wall = 8:43 cpu = 8:43 s=1 ) 
64.6% time = 105.840682 us ( etc = 4:40, ett = 13:24 ) 
( wall = 8:44 cpu = 8:44 s=1 ) 
64.7% time = 106.004690 us ( etc = 4:40, ett = 13:25 ) 
( wall = 8:45 cpu = 8:45 s=1 ) 
64.9% time = 106.332197 us ( etc = 4:34, ett = 13:20 ) 
( wall = 8:46 cpu = 8:46 s=1 ) 
65.0% time = 106.496058 us ( etc = 4:37, ett = 13:24 ) 
( wall = 8:47 cpu = 8:47 s=1 ) 
65.1% time = 106.660100 us ( etc = 4:36, ett = 13:24 ) 
( wall = 8:48 cpu = 8:48 s=1 ) 
65.3% time = 106.987600 us ( etc = 4:31, ett = 13:20 ) 
( wall = 8:49 cpu = 8:49 s=1 ) 
65.4% time = 107.151591 us ( etc = 4:34, ett = 13:24 ) 
( wall = 8:50 cpu = 8:50 s=1 ) 
65.5% time = 107.315200 us ( etc = 4:33, ett = 13:24 ) 
( wall = 8:51 cpu = 8:51 s=1 ) 
65.6% time = 107.479533 us ( etc = 4:33, ett = 13:25 ) 
( wall = 8:52 cpu = 8:52 s=1 ) 
65.7% time = 107.642884 us ( etc = 4:32, ett = 13:25 ) 
( wall = 8:53 cpu = 8:53 s=1 ) 
65.9% time = 107.970580 us ( etc = 4:30, ett = 13:24 ) 
( wall = 8:54 cpu = 8:54 s=1 ) 
66.0% time = 108.134641 us ( etc = 4:29, ett = 13:24 ) 
( wall = 8:55 cpu = 8:55 s=1 ) 
66.1% time = 108.298280 us ( etc = 4:29, ett = 13:25 ) 
( wall = 8:56 cpu = 8:56 s=1 ) 
66.2% time = 108.462600 us ( etc = 4:32, ett = 13:29 ) 
( wall = 8:57 cpu = 8:57 s=1 ) 
66.4% time = 108.789776 us ( etc = 4:26, ett = 13:24 ) 
( wall = 8:58 cpu = 8:58 s=1 ) 
66.5% time = 108.953990 us ( etc = 4:25, ett = 13:24 ) 
( wall = 8:59 cpu = 8:59 s=1 ) 
66.6% time = 109.117600 us ( etc = 4:29, ett = 13:29 ) 
( wall = 9:00 cpu = 9:00 s=1 ) 
66.8% time = 109.445132 us ( etc = 4:23, ett = 13:24 ) 
( wall = 9:01 cpu = 9:01 s=1 ) 
66.9% time = 109.609577 us ( etc = 4:22, ett = 13:24 ) 
( wall = 9:02 cpu = 9:02 s=1 ) 
67.0% time = 109.772800 us ( etc = 4:26, ett = 13:29 ) 
( wall = 9:03 cpu = 9:03 s=1 ) 
67.1% time = 109.936766 us ( etc = 4:25, ett = 13:29 ) 
( wall = 9:04 cpu = 9:04 s=1 ) 
67.2% time = 110.100501 us ( etc = 4:24, ett = 13:29 ) 
( wall = 9:05 cpu = 9:05 s=1 ) 
67.4% time = 110.428198 us ( etc = 4:18, ett = 13:24 ) 
( wall = 9:06 cpu = 9:06 s=1 ) 
67.5% time = 110.592600 us ( etc = 4:17, ett = 13:24 ) 
( wall = 9:07 cpu = 9:07 s=1 ) 
67.7% time = 110.919760 us ( etc = 4:16, ett = 13:24 ) 
( wall = 9:08 cpu = 9:08 s=1 ) 
67.8% time = 111.083539 us ( etc = 4:15, ett = 13:24 ) 
( wall = 9:09 cpu = 9:09 s=1 ) 
67.9% time = 111.247600 us ( etc = 4:14, ett = 13:24 ) 
( wall = 9:10 cpu = 9:10 s=1 ) 
68.0% time = 111.411505 us ( etc = 4:13, ett = 13:24 ) 
( wall = 9:11 cpu = 9:11 s=1 ) 
68.2% time = 111.739642 us ( etc = 4:12, ett = 13:24 ) 
( wall = 9:12 cpu = 9:12 s=1 ) 
68.3% time = 111.902721 us ( etc = 4:11, ett = 13:24 ) 
( wall = 9:13 cpu = 9:13 s=1 ) 
68.4% time = 112.066997 us ( etc = 4:14, ett = 13:28 ) 
( wall = 9:14 cpu = 9:14 s=1 ) 
68.5% time = 112.230409 us ( etc = 4:14, ett = 13:29 ) 
( wall = 9:15 cpu = 9:15 s=1 ) 
68.6% time = 112.394608 us ( etc = 4:13, ett = 13:29 ) 
( wall = 9:16 cpu = 9:16 s=1 ) 
68.8% time = 112.722133 us ( etc = 4:11, ett = 13:28 ) 
( wall = 9:17 cpu = 9:17 s=1 ) 
68.9% time = 112.885835 us ( etc = 4:10, ett = 13:28 ) 
( wall = 9:18 cpu = 9:18 s=1 ) 
69.0% time = 113.050100 us ( etc = 4:10, ett = 13:29 ) 
( wall = 9:19 cpu = 9:19 s=1 ) 
69.2% time = 113.377600 us ( etc = 4:04, ett = 13:24 ) 
( wall = 9:20 cpu = 9:20 s=1 ) 
69.3% time = 113.541304 us ( etc = 4:07, ett = 13:28 ) 
( wall = 9:21 cpu = 9:21 s=1 ) 
69.4% time = 113.705100 us ( etc = 4:06, ett = 13:28 ) 
( wall = 9:22 cpu = 9:22 s=1 ) 
69.6% time = 114.032641 us ( etc = 4:01, ett = 13:24 ) 
( wall = 9:23 cpu = 9:23 s=1 ) 
69.7% time = 114.197134 us ( etc = 4:04, ett = 13:28 ) 
( wall = 9:24 cpu = 9:24 s=1 ) 
69.8% time = 114.360331 us ( etc = 4:03, ett = 13:28 ) 
( wall = 9:25 cpu = 9:25 s=1 ) 
70.0% time = 114.688014 us ( etc = 3:58, ett = 13:24 ) 
( wall = 9:26 cpu = 9:26 s=1 ) 
70.1% time = 114.852252 us ( etc = 4:01, ett = 13:28 ) 
( wall = 9:27 cpu = 9:27 s=1 ) 
70.2% time = 115.015756 us ( etc = 4:00, ett = 13:28 ) 
( wall = 9:28 cpu = 9:28 s=1 ) 
70.3% time = 115.180100 us ( etc = 3:59, ett = 13:28 ) 
( wall = 9:29 cpu = 9:29 s=1 ) 
70.4% time = 115.343791 us ( etc = 3:58, ett = 13:28 ) 
( wall = 9:30 cpu = 9:30 s=1 ) 
70.6% time = 115.671052 us ( etc = 3:57, ett = 13:28 ) 
( wall = 9:31 cpu = 9:31 s=1 ) 
70.7% time = 115.835100 us ( etc = 3:56, ett = 13:28 ) 
( wall = 9:32 cpu = 9:32 s=1 ) 
70.8% time = 115.999211 us ( etc = 3:55, ett = 13:28 ) 
( wall = 9:33 cpu = 9:33 s=1 ) 
70.9% time = 116.162600 us ( etc = 3:54, ett = 13:28 ) 
( wall = 9:34 cpu = 9:34 s=1 ) 
71.1% time = 116.490247 us ( etc = 3:49, ett = 13:24 ) 
( wall = 9:35 cpu = 9:35 s=1 ) 
71.2% time = 116.654498 us ( etc = 3:52, ett = 13:28 ) 
( wall = 9:36 cpu = 9:36 s=1 ) 
71.3% time = 116.817926 us ( etc = 3:51, ett = 13:28 ) 
( wall = 9:37 cpu = 9:37 s=1 ) 
71.4% time = 116.982123 us ( etc = 3:50, ett = 13:28 ) 
( wall = 9:38 cpu = 9:38 s=1 ) 
71.6% time = 117.310100 us ( etc = 3:49, ett = 13:28 ) 
( wall = 9:39 cpu = 9:39 s=1 ) 
71.7% time = 117.473337 us ( etc = 3:48, ett = 13:28 ) 
( wall = 9:40 cpu = 9:40 s=1 ) 
71.8% time = 117.637600 us ( etc = 3:47, ett = 13:28 ) 
( wall = 9:41 cpu = 9:41 s=1 ) 
71.9% time = 117.801138 us ( etc = 3:46, ett = 13:28 ) 
( wall = 9:42 cpu = 9:42 s=1 ) 
72.1% time = 118.128764 us ( etc = 3:41, ett = 13:24 ) 
( wall = 9:43 cpu = 9:43 s=1 ) 
72.2% time = 118.292600 us ( etc = 3:44, ett = 13:28 ) 
( wall = 9:44 cpu = 9:44 s=1 ) 
72.3% time = 118.456477 us ( etc = 3:43, ett = 13:28 ) 
( wall = 9:45 cpu = 9:45 s=1 ) 
72.5% time = 118.784677 us ( etc = 3:38, ett = 13:24 ) 
( wall = 9:46 cpu = 9:46 s=1 ) 
72.6% time = 118.947858 us ( etc = 3:37, ett = 13:24 ) 
( wall = 9:47 cpu = 9:47 s=1 ) 
72.7% time = 119.112131 us ( etc = 3:40, ett = 13:28 ) 
( wall = 9:48 cpu = 9:48 s=1 ) 
72.8% time = 119.275536 us ( etc = 3:39, ett = 13:28 ) 
( wall = 9:49 cpu = 9:49 s=1 ) 
72.9% time = 119.440100 us ( etc = 3:38, ett = 13:28 ) 
( wall = 9:50 cpu = 9:50 s=1 ) 
73.0% time = 119.603461 us ( etc = 3:41, ett = 13:32 ) 
( wall = 9:51 cpu = 9:51 s=1 ) 
73.2% time = 119.930913 us ( etc = 3:36, ett = 13:28 ) 
( wall = 9:52 cpu = 9:52 s=1 ) 
73.3% time = 120.095100 us ( etc = 3:35, ett = 13:28 ) 
( wall = 9:53 cpu = 9:53 s=1 ) 
73.4% time = 120.258741 us ( etc = 3:34, ett = 13:28 ) 
( wall = 9:54 cpu = 9:54 s=1 ) 
73.6% time = 120.586685 us ( etc = 3:29, ett = 13:24 ) 
( wall = 9:55 cpu = 9:55 s=1 ) 
73.7% time = 120.750100 us ( etc = 3:32, ett = 13:28 ) 
( wall = 9:56 cpu = 9:56 s=1 ) 
73.8% time = 120.913970 us ( etc = 3:31, ett = 13:28 ) 
( wall = 9:57 cpu = 9:57 s=1 ) 
73.9% time = 121.077762 us ( etc = 3:33, ett = 13:31 ) 
( wall = 9:58 cpu = 9:58 s=1 ) 
74.1% time = 121.405456 us ( etc = 3:28, ett = 13:27 ) 
( wall = 9:59 cpu = 9:59 s=1 ) 
74.2% time = 121.569777 us ( etc = 3:28, ett = 13:28 ) 
( wall = 10:00 cpu = 10:00 s=1 ) 
74.3% time = 121.733120 us ( etc = 3:27, ett = 13:28 ) 
( wall = 10:01 cpu = 10:01 s=1 ) 
74.4% time = 121.897047 us ( etc = 3:29, ett = 13:31 ) 
( wall = 10:02 cpu = 10:02 s=1 ) 
74.6% time = 122.225100 us ( etc = 3:24, ett = 13:27 ) 
( wall = 10:03 cpu = 10:03 s=1 ) 
74.7% time = 122.388545 us ( etc = 3:24, ett = 13:28 ) 
( wall = 10:04 cpu = 10:04 s=1 ) 
74.8% time = 122.552396 us ( etc = 3:23, ett = 13:28 ) 
( wall = 10:05 cpu = 10:05 s=1 ) 
74.9% time = 122.716369 us ( etc = 3:22, ett = 13:28 ) 
( wall = 10:06 cpu = 10:06 s=1 ) 
75.1% time = 123.043871 us ( etc = 3:20, ett = 13:27 ) 
( wall = 10:07 cpu = 10:07 s=1 ) 
75.2% time = 123.207686 us ( etc = 3:20, ett = 13:28 ) 
( wall = 10:08 cpu = 10:08 s=1 ) 
75.3% time = 123.371854 us ( etc = 3:19, ett = 13:28 ) 
( wall = 10:09 cpu = 10:09 s=1 ) 
75.5% time = 123.699211 us ( etc = 3:17, ett = 13:27 ) 
( wall = 10:10 cpu = 10:10 s=1 ) 
75.6% time = 123.863044 us ( etc = 3:16, ett = 13:27 ) 
( wall = 10:11 cpu = 10:11 s=1 ) 
75.7% time = 124.026983 us ( etc = 3:15, ett = 13:27 ) 
( wall = 10:12 cpu = 10:12 s=1 ) 
75.9% time = 124.355100 us ( etc = 3:14, ett = 13:27 ) 
( wall = 10:13 cpu = 10:13 s=1 ) 
76.0% time = 124.518570 us ( etc = 3:13, ett = 13:27 ) 
( wall = 10:14 cpu = 10:14 s=1 ) 
76.1% time = 124.682600 us ( etc = 3:12, ett = 13:27 ) 
( wall = 10:15 cpu = 10:15 s=1 ) 
76.3% time = 125.010100 us ( etc = 3:11, ett = 13:27 ) 
( wall = 10:16 cpu = 10:16 s=1 ) 
76.4% time = 125.174604 us ( etc = 3:10, ett = 13:27 ) 
( wall = 10:17 cpu = 10:17 s=1 ) 
76.5% time = 125.337600 us ( etc = 3:09, ett = 13:27 ) 
( wall = 10:18 cpu = 10:18 s=1 ) 
76.6% time = 125.501581 us ( etc = 3:08, ett = 13:27 ) 
( wall = 10:19 cpu = 10:19 s=1 ) 
76.8% time = 125.829639 us ( etc = 3:04, ett = 13:24 ) 
( wall = 10:20 cpu = 10:20 s=1 ) 
76.9% time = 125.992974 us ( etc = 3:06, ett = 13:27 ) 
( wall = 10:21 cpu = 10:21 s=1 ) 
77.1% time = 126.320643 us ( etc = 3:01, ett = 13:23 ) 
( wall = 10:22 cpu = 10:22 s=1 ) 
77.2% time = 126.484566 us ( etc = 3:00, ett = 13:23 ) 
( wall = 10:23 cpu = 10:23 s=1 ) 
77.3% time = 126.648540 us ( etc = 3:00, ett = 13:24 ) 
( wall = 10:24 cpu = 10:24 s=1 ) 
77.4% time = 126.812234 us ( etc = 3:02, ett = 13:27 ) 
( wall = 10:25 cpu = 10:25 s=1 ) 
77.5% time = 126.976241 us ( etc = 3:01, ett = 13:27 ) 
( wall = 10:26 cpu = 10:26 s=1 ) 
77.7% time = 127.303949 us ( etc = 2:56, ett = 13:23 ) 
( wall = 10:27 cpu = 10:27 s=1 ) 
77.8% time = 127.467600 us ( etc = 2:56, ett = 13:24 ) 
( wall = 10:28 cpu = 10:28 s=1 ) 
77.9% time = 127.631610 us ( etc = 2:58, ett = 13:27 ) 
( wall = 10:29 cpu = 10:29 s=1 ) 
78.0% time = 127.795200 us ( etc = 2:57, ett = 13:27 ) 
( wall = 10:30 cpu = 10:30 s=1 ) 
78.1% time = 127.959511 us ( etc = 2:56, ett = 13:27 ) 
( wall = 10:31 cpu = 10:31 s=1 ) 
78.3% time = 128.286917 us ( etc = 2:52, ett = 13:24 ) 
( wall = 10:32 cpu = 10:32 s=1 ) 
78.4% time = 128.450586 us ( etc = 2:54, ett = 13:27 ) 
( wall = 10:33 cpu = 10:33 s=1 ) 
78.5% time = 128.614644 us ( etc = 2:53, ett = 13:27 ) 
( wall = 10:34 cpu = 10:34 s=1 ) 
78.7% time = 128.942281 us ( etc = 2:49, ett = 13:24 ) 
( wall = 10:35 cpu = 10:35 s=1 ) 
78.8% time = 129.105979 us ( etc = 2:50, ett = 13:26 ) 
( wall = 10:36 cpu = 10:36 s=1 ) 
78.9% time = 129.270100 us ( etc = 2:50, ett = 13:27 ) 
( wall = 10:37 cpu = 10:37 s=1 ) 
79.0% time = 129.433709 us ( etc = 2:49, ett = 13:27 ) 
( wall = 10:38 cpu = 10:38 s=1 ) 
79.2% time = 129.761366 us ( etc = 2:45, ett = 13:24 ) 
( wall = 10:39 cpu = 10:39 s=1 ) 
79.3% time = 129.925132 us ( etc = 2:44, ett = 13:24 ) 
( wall = 10:40 cpu = 10:40 s=1 ) 
79.4% time = 130.089018 us ( etc = 2:43, ett = 13:24 ) 
( wall = 10:41 cpu = 10:41 s=1 ) 
79.6% time = 130.417236 us ( etc = 2:41, ett = 13:23 ) 
( wall = 10:42 cpu = 10:42 s=1 ) 
79.7% time = 130.580482 us ( etc = 2:41, ett = 13:24 ) 
( wall = 10:43 cpu = 10:43 s=1 ) 
79.8% time = 130.745100 us ( etc = 2:40, ett = 13:24 ) 
( wall = 10:44 cpu = 10:44 s=1 ) 
80.0% time = 131.072111 us ( etc = 2:38, ett = 13:23 ) 
( wall = 10:45 cpu = 10:45 s=1 ) 
80.1% time = 131.236040 us ( etc = 2:37, ett = 13:23 ) 
( wall = 10:46 cpu = 10:46 s=1 ) 
80.2% time = 131.400100 us ( etc = 2:37, ett = 13:24 ) 
( wall = 10:47 cpu = 10:47 s=1 ) 
80.4% time = 131.727600 us ( etc = 2:33, ett = 13:21 ) 
( wall = 10:48 cpu = 10:48 s=1 ) 
80.5% time = 131.891311 us ( etc = 2:34, ett = 13:23 ) 
( wall = 10:49 cpu = 10:49 s=1 ) 
80.7% time = 132.219642 us ( etc = 2:30, ett = 13:20 ) 
( wall = 10:50 cpu = 10:50 s=1 ) 
80.8% time = 132.382721 us ( etc = 2:30, ett = 13:21 ) 
( wall = 10:51 cpu = 10:51 s=1 ) 
81.0% time = 132.710406 us ( etc = 2:26, ett = 13:18 ) 
( wall = 10:52 cpu = 10:52 s=1 ) 
81.1% time = 132.874542 us ( etc = 2:27, ett = 13:20 ) 
( wall = 10:53 cpu = 10:53 s=1 ) 
81.2% time = 133.038081 us ( etc = 2:26, ett = 13:20 ) 
( wall = 10:54 cpu = 10:54 s=1 ) 
81.4% time = 133.366197 us ( etc = 2:23, ett = 13:18 ) 
( wall = 10:55 cpu = 10:55 s=1 ) 
81.5% time = 133.529655 us ( etc = 2:22, ett = 13:18 ) 
( wall = 10:56 cpu = 10:56 s=1 ) 
81.7% time = 133.857600 us ( etc = 2:20, ett = 13:17 ) 
( wall = 10:57 cpu = 10:57 s=1 ) 
81.8% time = 134.021451 us ( etc = 2:20, ett = 13:18 ) 
( wall = 10:58 cpu = 10:58 s=1 ) 
82.0% time = 134.349208 us ( etc = 2:16, ett = 13:15 ) 
( wall = 10:59 cpu = 10:59 s=1 ) 
82.1% time = 134.512641 us ( etc = 2:17, ett = 13:17 ) 
( wall = 11:00 cpu = 11:00 s=1 ) 
82.3% time = 134.840327 us ( etc = 2:14, ett = 13:15 ) 
( wall = 11:01 cpu = 11:01 s=1 ) 
82.4% time = 135.005100 us ( etc = 2:13, ett = 13:15 ) 
( wall = 11:02 cpu = 11:02 s=1 ) 
82.6% time = 135.332067 us ( etc = 2:11, ett = 13:14 ) 
( wall = 11:03 cpu = 11:03 s=1 ) 
82.7% time = 135.495710 us ( etc = 2:11, ett = 13:15 ) 
( wall = 11:04 cpu = 11:04 s=1 ) 
82.8% time = 135.660100 us ( etc = 2:10, ett = 13:15 ) 
( wall = 11:05 cpu = 11:05 s=1 ) 
83.0% time = 135.987219 us ( etc = 2:08, ett = 13:14 ) 
( wall = 11:06 cpu = 11:06 s=1 ) 
83.1% time = 136.151160 us ( etc = 2:08, ett = 13:15 ) 
( wall = 11:07 cpu = 11:07 s=1 ) 
83.3% time = 136.479211 us ( etc = 2:04, ett = 13:12 ) 
( wall = 11:08 cpu = 11:08 s=1 ) 
83.4% time = 136.642600 us ( etc = 2:03, ett = 13:12 ) 
( wall = 11:09 cpu = 11:09 s=1 ) 
83.6% time = 136.970247 us ( etc = 2:02, ett = 13:12 ) 
( wall = 11:10 cpu = 11:10 s=1 ) 
83.7% time = 137.135100 us ( etc = 2:01, ett = 13:12 ) 
( wall = 11:11 cpu = 11:11 s=1 ) 
83.8% time = 137.297932 us ( etc = 2:02, ett = 13:14 ) 
( wall = 11:12 cpu = 11:12 s=1 ) 
84.0% time = 137.625710 us ( etc = 1:59, ett = 13:12 ) 
( wall = 11:13 cpu = 11:13 s=1 ) 
84.1% time = 137.790100 us ( etc = 1:58, ett = 13:12 ) 
( wall = 11:14 cpu = 11:14 s=1 ) 
84.3% time = 138.117178 us ( etc = 1:55, ett = 13:10 ) 
( wall = 11:15 cpu = 11:15 s=1 ) 
84.5% time = 138.445100 us ( etc = 1:52, ett = 13:08 ) 
( wall = 11:16 cpu = 11:16 s=1 ) 
84.6% time = 138.609399 us ( etc = 1:53, ett = 13:10 ) 
( wall = 11:17 cpu = 11:17 s=1 ) 
84.8% time = 138.936516 us ( etc = 1:50, ett = 13:08 ) 
( wall = 11:18 cpu = 11:18 s=1 ) 
84.9% time = 139.100182 us ( etc = 1:49, ett = 13:08 ) 
( wall = 11:19 cpu = 11:19 s=1 ) 
85.1% time = 139.427858 us ( etc = 1:46, ett = 13:06 ) 
( wall = 11:20 cpu = 11:20 s=1 ) 
85.2% time = 139.592131 us ( etc = 1:45, ett = 13:06 ) 
( wall = 11:21 cpu = 11:21 s=1 ) 
85.4% time = 139.919611 us ( etc = 1:44, ett = 13:06 ) 
( wall = 11:22 cpu = 11:22 s=1 ) 
85.6% time = 140.247237 us ( etc = 1:41, ett = 13:04 ) 
( wall = 11:23 cpu = 11:23 s=1 ) 
85.7% time = 140.411409 us ( etc = 1:40, ett = 13:04 ) 
( wall = 11:24 cpu = 11:24 s=1 ) 
85.9% time = 140.738933 us ( etc = 1:39, ett = 13:04 ) 
( wall = 11:25 cpu = 11:25 s=1 ) 
86.0% time = 140.902600 us ( etc = 1:38, ett = 13:04 ) 
( wall = 11:26 cpu = 11:26 s=1 ) 
86.2% time = 141.230100 us ( etc = 1:35, ett = 13:02 ) 
( wall = 11:27 cpu = 11:27 s=1 ) 
86.3% time = 141.394049 us ( etc = 1:35, ett = 13:03 ) 
( wall = 11:28 cpu = 11:28 s=1 ) 
86.5% time = 141.722233 us ( etc = 1:33, ett = 13:02 ) 
( wall = 11:29 cpu = 11:29 s=1 ) 
86.6% time = 141.885456 us ( etc = 1:33, ett = 13:03 ) 
( wall = 11:30 cpu = 11:30 s=1 ) 
86.8% time = 142.213139 us ( etc = 1:30, ett = 13:01 ) 
( wall = 11:31 cpu = 11:31 s=1 ) 
86.9% time = 142.377021 us ( etc = 1:30, ett = 13:02 ) 
( wall = 11:32 cpu = 11:32 s=1 ) 
87.1% time = 142.704852 us ( etc = 1:28, ett = 13:01 ) 
( wall = 11:33 cpu = 11:33 s=1 ) 
87.3% time = 143.032335 us ( etc = 1:25, ett = 12:59 ) 
( wall = 11:34 cpu = 11:34 s=1 ) 
87.4% time = 143.196583 us ( etc = 1:26, ett = 13:01 ) 
( wall = 11:35 cpu = 11:35 s=1 ) 
87.5% time = 143.360100 us ( etc = 1:25, ett = 13:01 ) 
( wall = 11:36 cpu = 11:36 s=1 ) 
87.7% time = 143.687686 us ( etc = 1:23, ett = 13:00 ) 
( wall = 11:37 cpu = 11:37 s=1 ) 
87.9% time = 144.015371 us ( etc = 1:21, ett = 12:59 ) 
( wall = 11:38 cpu = 11:38 s=1 ) 
88.0% time = 144.179725 us ( etc = 1:21, ett = 13:00 ) 
( wall = 11:39 cpu = 11:39 s=1 ) 
88.2% time = 144.507139 us ( etc = 1:19, ett = 12:59 ) 
( wall = 11:40 cpu = 11:40 s=1 ) 
88.3% time = 144.670760 us ( etc = 1:19, ett = 13:00 ) 
( wall = 11:41 cpu = 11:41 s=1 ) 
88.5% time = 144.998589 us ( etc = 1:17, ett = 12:59 ) 
( wall = 11:42 cpu = 11:42 s=1 ) 
88.6% time = 145.162411 us ( etc = 1:17, ett = 13:00 ) 
( wall = 11:43 cpu = 11:43 s=1 ) 
88.8% time = 145.490100 us ( etc = 1:14, ett = 12:58 ) 
( wall = 11:44 cpu = 11:44 s=1 ) 
88.9% time = 145.653974 us ( etc = 1:15, ett = 13:00 ) 
( wall = 11:45 cpu = 11:45 s=1 ) 
89.0% time = 145.817600 us ( etc = 1:14, ett = 13:00 ) 
( wall = 11:46 cpu = 11:46 s=1 ) 
89.2% time = 146.145287 us ( etc = 1:12, ett = 12:59 ) 
( wall = 11:47 cpu = 11:47 s=1 ) 
89.3% time = 146.309642 us ( etc = 1:12, ett = 13:00 ) 
( wall = 11:48 cpu = 11:48 s=1 ) 
89.4% time = 146.472962 us ( etc = 1:12, ett = 13:01 ) 
( wall = 11:49 cpu = 11:49 s=1 ) 
89.5% time = 146.637159 us ( etc = 1:11, ett = 13:01 ) 
( wall = 11:50 cpu = 11:50 s=1 ) 
89.7% time = 146.964779 us ( etc = 1:10, ett = 13:01 ) 
( wall = 11:51 cpu = 11:51 s=1 ) 
89.8% time = 147.128540 us ( etc = 1:09, ett = 13:01 ) 
( wall = 11:52 cpu = 11:52 s=1 ) 
89.9% time = 147.292600 us ( etc = 1:10, ett = 13:03 ) 
( wall = 11:53 cpu = 11:53 s=1 ) 
90.0% time = 147.456094 us ( etc = 1:08, ett = 13:01 ) 
( wall = 11:53 cpu = 11:53 s=1 ) 
90.1% time = 147.620100 us ( etc = 1:07, ett = 13:01 ) 
( wall = 11:54 cpu = 11:54 s=1 ) 
90.2% time = 147.783949 us ( etc = 1:07, ett = 13:02 ) 
( wall = 11:55 cpu = 11:55 s=1 ) 
90.3% time = 147.947600 us ( etc = 1:06, ett = 13:02 ) 
( wall = 11:56 cpu = 11:56 s=1 ) 
90.5% time = 148.275200 us ( etc = 1:05, ett = 13:02 ) 
( wall = 11:57 cpu = 11:57 s=1 ) 
90.6% time = 148.439500 us ( etc = 1:04, ett = 13:02 ) 
( wall = 11:58 cpu = 11:58 s=1 ) 
90.7% time = 148.602884 us ( etc = 1:05, ett = 13:04 ) 
( wall = 11:59 cpu = 11:59 s=1 ) 
90.8% time = 148.767138 us ( etc = 1:04, ett = 13:04 ) 
( wall = 12:00 cpu = 12:00 s=1 ) 
91.0% time = 149.095100 us ( etc = 1:02, ett = 13:03 ) 
( wall = 12:01 cpu = 12:01 s=1 ) 
91.1% time = 149.258302 us ( etc = 1:02, ett = 13:04 ) 
( wall = 12:02 cpu = 12:02 s=1 ) 
91.3% time = 149.585991 us ( etc = 1:00, ett = 13:03 ) 
( wall = 12:03 cpu = 12:03 s=1 ) 
91.4% time = 149.750100 us ( etc = 1:00, ett = 13:04 ) 
( wall = 12:04 cpu = 12:04 s=1 ) 
91.5% time = 149.913982 us ( etc = 1:00, ett = 13:05 ) 
( wall = 12:05 cpu = 12:05 s=1 ) 
91.7% time = 150.241551 us ( etc = 58.1 sec, ett = 13:04 ) 
( wall = 12:06 cpu = 12:06 s=1 ) 
91.8% time = 150.405132 us ( etc = 58.2 sec, ett = 13:05 ) 
( wall = 12:07 cpu = 12:07 s=1 ) 
91.9% time = 150.569409 us ( etc = 57.5 sec, ett = 13:05 ) 
( wall = 12:08 cpu = 12:08 s=1 ) 
92.0% time = 150.732801 us ( etc = 57.6 sec, ett = 13:06 ) 
( wall = 12:09 cpu = 12:09 s=1 ) 
92.2% time = 151.060482 us ( etc = 55.4 sec, ett = 13:05 ) 
( wall = 12:10 cpu = 12:10 s=1 ) 
92.3% time = 151.224642 us ( etc = 55.5 sec, ett = 13:06 ) 
( wall = 12:11 cpu = 12:11 s=1 ) 
92.5% time = 151.552306 us ( etc = 54.0 sec, ett = 13:06 ) 
( wall = 12:12 cpu = 12:12 s=1 ) 
92.6% time = 151.716040 us ( etc = 53.3 sec, ett = 13:06 ) 
( wall = 12:13 cpu = 12:13 s=1 ) 
92.7% time = 151.880100 us ( etc = 53.4 sec, ett = 13:07 ) 
( wall = 12:14 cpu = 12:14 s=1 ) 
92.9% time = 152.207600 us ( etc = 51.2 sec, ett = 13:06 ) 
( wall = 12:15 cpu = 12:15 s=1 ) 
93.0% time = 152.371601 us ( etc = 51.2 sec, ett = 13:07 ) 
( wall = 12:16 cpu = 12:16 s=1 ) 
93.1% time = 152.535100 us ( etc = 50.5 sec, ett = 13:07 ) 
( wall = 12:17 cpu = 12:17 s=1 ) 
93.3% time = 152.862721 us ( etc = 49.0 sec, ett = 13:07 ) 
( wall = 12:18 cpu = 12:18 s=1 ) 
93.4% time = 153.026985 us ( etc = 48.3 sec, ett = 13:07 ) 
( wall = 12:19 cpu = 12:19 s=1 ) 
93.5% time = 153.190400 us ( etc = 48.3 sec, ett = 13:08 ) 
( wall = 12:20 cpu = 12:20 s=1 ) 
93.6% time = 153.354305 us ( etc = 47.5 sec, ett = 13:08 ) 
( wall = 12:21 cpu = 12:21 s=1 ) 
93.7% time = 153.518084 us ( etc = 47.5 sec, ett = 13:09 ) 
( wall = 12:22 cpu = 12:22 s=1 ) 
93.9% time = 153.846197 us ( etc = 46.0 sec, ett = 13:08 ) 
( wall = 12:23 cpu = 12:23 s=1 ) 
94.0% time = 154.010100 us ( etc = 45.2 sec, ett = 13:09 ) 
( wall = 12:24 cpu = 12:24 s=1 ) 
94.1% time = 154.173791 us ( etc = 44.5 sec, ett = 13:09 ) 
( wall = 12:25 cpu = 12:25 s=1 ) 
94.3% time = 154.501501 us ( etc = 43.0 sec, ett = 13:08 ) 
( wall = 12:26 cpu = 12:26 s=1 ) 
94.4% time = 154.665100 us ( etc = 42.9 sec, ett = 13:09 ) 
( wall = 12:27 cpu = 12:27 s=1 ) 
94.5% time = 154.829211 us ( etc = 42.1 sec, ett = 13:10 ) 
( wall = 12:28 cpu = 12:28 s=1 ) 
94.7% time = 155.156923 us ( etc = 40.6 sec, ett = 13:09 ) 
( wall = 12:29 cpu = 12:29 s=1 ) 
94.8% time = 155.320324 us ( etc = 39.8 sec, ett = 13:09 ) 
( wall = 12:30 cpu = 12:30 s=1 ) 
94.9% time = 155.485100 us ( etc = 39.7 sec, ett = 13:10 ) 
( wall = 12:31 cpu = 12:31 s=1 ) 
95.1% time = 155.812115 us ( etc = 38.3 sec, ett = 13:11 ) 
( wall = 12:33 cpu = 12:33 s=1 ) 
95.3% time = 156.140100 us ( etc = 36.7 sec, ett = 13:10 ) 
( wall = 12:34 cpu = 12:34 s=1 ) 
95.4% time = 156.303792 us ( etc = 35.9 sec, ett = 13:10 ) 
( wall = 12:35 cpu = 12:35 s=1 ) 
95.5% time = 156.467600 us ( etc = 35.2 sec, ett = 13:11 ) 
( wall = 12:36 cpu = 12:36 s=1 ) 
95.7% time = 156.795100 us ( etc = 33.6 sec, ett = 13:10 ) 
( wall = 12:37 cpu = 12:37 s=1 ) 
95.8% time = 156.959301 us ( etc = 32.8 sec, ett = 13:10 ) 
( wall = 12:38 cpu = 12:38 s=1 ) 
95.9% time = 157.122600 us ( etc = 32.0 sec, ett = 13:11 ) 
( wall = 12:39 cpu = 12:39 s=1 ) 
96.0% time = 157.286744 us ( etc = 31.3 sec, ett = 13:11 ) 
( wall = 12:40 cpu = 12:40 s=1 ) 
96.2% time = 157.614230 us ( etc = 29.7 sec, ett = 13:10 ) 
( wall = 12:41 cpu = 12:41 s=1 ) 
96.3% time = 157.777927 us ( etc = 28.9 sec, ett = 13:10 ) 
( wall = 12:42 cpu = 12:42 s=1 ) 
96.4% time = 157.942283 us ( etc = 28.1 sec, ett = 13:11 ) 
( wall = 12:43 cpu = 12:43 s=1 ) 
96.6% time = 158.270100 us ( etc = 26.7 sec, ett = 13:10 ) 
( wall = 12:44 cpu = 12:44 s=1 ) 
96.7% time = 158.433350 us ( etc = 25.9 sec, ett = 13:10 ) 
( wall = 12:45 cpu = 12:45 s=1 ) 
96.8% time = 158.597165 us ( etc = 25.1 sec, ett = 13:11 ) 
( wall = 12:46 cpu = 12:46 s=1 ) 
96.9% time = 158.761130 us ( etc = 24.3 sec, ett = 13:11 ) 
( wall = 12:47 cpu = 12:47 s=1 ) 
97.0% time = 158.925100 us ( etc = 23.9 sec, ett = 13:11 ) 
( wall = 12:48 cpu = 12:48 s=1 ) 
97.1% time = 159.088783 us ( etc = 23.1 sec, ett = 13:12 ) 
( wall = 12:49 cpu = 12:49 s=1 ) 
97.3% time = 159.416794 us ( etc = 21.2 sec, ett = 13:11 ) 
( wall = 12:50 cpu = 12:50 s=1 ) 
97.4% time = 159.580180 us ( etc = 20.4 sec, ett = 13:11 ) 
( wall = 12:51 cpu = 12:51 s=1 ) 
97.5% time = 159.744004 us ( etc = 19.9 sec, ett = 13:11 ) 
( wall = 12:52 cpu = 12:52 s=1 ) 
97.7% time = 160.072131 us ( etc = 18.0 sec, ett = 13:11 ) 
( wall = 12:53 cpu = 12:53 s=1 ) 
97.8% time = 160.235537 us ( etc = 17.5 sec, ett = 13:11 ) 
( wall = 12:54 cpu = 12:54 s=1 ) 
98.0% time = 160.563204 us ( etc = 15.7 sec, ett = 13:10 ) 
( wall = 12:55 cpu = 12:55 s=1 ) 
98.1% time = 160.727273 us ( etc = 14.9 sec, ett = 13:10 ) 
( wall = 12:56 cpu = 12:56 s=1 ) 
98.2% time = 160.891249 us ( etc = 14.3 sec, ett = 13:11 ) 
( wall = 12:57 cpu = 12:57 s=1 ) 
98.3% time = 161.055100 us ( etc = 13.5 sec, ett = 13:11 ) 
( wall = 12:58 cpu = 12:58 s=1 ) 
98.5% time = 161.382600 us ( etc = 11.8 sec, ett = 13:10 ) 
( wall = 12:59 cpu = 12:59 s=1 ) 
98.6% time = 161.546516 us ( etc = 11.0 sec, ett = 13:10 ) 
( wall = 13:00 cpu = 13:00 s=1 ) 
98.7% time = 161.710100 us ( etc = 10.4 sec, ett = 13:11 ) 
( wall = 13:01 cpu = 13:01 s=1 ) 
98.9% time = 162.037778 us ( etc = 8.6 sec, ett = 13:10 ) 
( wall = 13:02 cpu = 13:02 s=1 ) 
99.0% time = 162.202098 us ( etc = 8.0 sec, ett = 13:10 ) 
( wall = 13:03 cpu = 13:03 s=1 ) 
99.1% time = 162.365442 us ( etc = 7.2 sec, ett = 13:11 ) 
( wall = 13:04 cpu = 13:04 s=1 ) 
99.3% time = 162.693201 us ( etc = 5.5 sec, ett = 13:10 ) 
( wall = 13:05 cpu = 13:05 s=1 ) 
99.4% time = 162.857021 us ( etc = 4.8 sec, ett = 13:10 ) 
( wall = 13:06 cpu = 13:06 s=1 ) 
99.5% time = 163.020823 us ( etc = 4.0 sec, ett = 13:10 ) 
( wall = 13:07 cpu = 13:07 s=1 ) 
99.7% time = 163.348548 us ( etc = 2.4 sec, ett = 13:10 ) 
( wall = 13:08 cpu = 13:08 s=1 ) 
99.8% time = 163.512335 us ( etc = 1.6 sec, ett = 13:10 ) 
( wall = 13:09 cpu = 13:09 s=1 ) 
99.9% time = 163.676313 us ( etc = 0.8 sec, ett = 13:10 ) 
( wall = 13:10 cpu = 13:10 s=1 ) 
100.0% time = 163.840000 us ( etc = 0.0 sec, ett = 13:11 ) 
( wall = 13:11 cpu = 13:11 s=1 ) 
 ****** 
 ****** 
 ******  transient analysis       temp=  25 
 ****** 
delayn1=  791.4506p    targ=  1.2859u trig=  1.2851u 
delayn2=  507.1051p    targ=  645.6571n trig=  645.1500n 
delayn3=  736.9193p    targ=  1.2809u trig=  1.2801u 
pw=  99.7287u      from=  0.000e+000  to=  1.638e-004 
pdp=  78.9304f    param = 7.893e-014 
 
 
 *************************  
 
Resource Usage for Transient Analysis 
CPU Time     791.11 sec   
Peak Memory  0.00 Mb      
  
Wall Time Statistics:  
  Transient Wall time                   = 791.0000 
  Transient Wall time per timestep      = 0.0003 
  Transient Wall time per timestep-node = 1.7057e-006 
  Total CPU time                       = 791.1100 
  Total CPU time per step              = 0.0003 
 
 
 

          ***** job concluded
1****** HSPICE -- J-2014.09-2 64-BIT (Oct 22 2014) win64 ******                 
 ******  
 eight-bit-comparator

 ****** job statistics summary tnom=  25.000 temp=  25.000 ******

  ******  HSPICE Threads Information  ******

  Command Line Threads Count :    14
  Available CPU Count        :    20
  Actual Threads Count       :    14


  ****** Statistics of Ignored Elements ******
  Voltage Sources :       1

  ******  Circuit Statistics  ******
  # nodes       =     788 # elements   =     328
  # resistors   =       0 # capacitors =       3 # inductors   =       0
  # mutual_inds =       0 # vccs       =       0 # vcvs        =       0
  # cccs        =       0 # ccvs       =       0 # volt_srcs   =      17
  # curr_srcs   =       0 # diodes     =       0 # bjts        =       0
  # jfets       =       0 # mosfets    =     308 # U elements  =       0
  # T elements  =       0 # W elements =       0 # B elements  =       0
  # S elements  =       0 # P elements =       0 # va device   =       0
  # vector_srcs =       0 # N elements =       0


  ******  Runtime Statistics (seconds)  ******

  analysis           time    # points   tot. iter  conv.iter
  op point           0.01           1          22
  transient        791.00     3276801     3636354     2466643  rev= 47802 
  readin             0.03
  errchk             0.01
  setup              0.01
  output             0.00
           peak memory used         74.62 megabytes 
           total cpu time          791.18 seconds
           total elapsed time      791.21 seconds
           job started at     22:22:35 07/11/2023
           job ended   at     22:35:46 07/11/2023


  lic: Release hspice token(s) 
 lic: total license checkout elapse time:        0.02(s)
