$DATA1 SOURCE='HSPICE' VERSION='N-2017.12 linux64' PARAM_COUNT=1
.TITLE 'lab3-3 pass-transistor 3-input xor (loading c=0.05p~0.3p)'
 k                delayn           pw               pdp             
                  temper           alter#          
  5.000e-14        1.025e-08        2.675e-06        2.741e-14      
                    25.0000        1               
  1.000e-13        1.452e-08        3.655e-06        5.305e-14      
                    25.0000        1               
  1.500e-13        1.786e-08        4.680e-06        8.357e-14      
                    25.0000        1               
  2.000e-13        2.039e-08        5.690e-06        1.160e-13      
                    25.0000        1               
  2.500e-13        2.292e-08        6.699e-06        1.535e-13      
                    25.0000        1               
  3.000e-13        2.484e-08        7.684e-06        1.909e-13      
                    25.0000        1               
