 ****** HSPICE -- J-2014.09-2 64-BIT (Oct 22 2014) win64 ******                 
  Copyright (C) 2014 Synopsys, Inc. All Rights Reserved.                        
  Unpublished-rights reserved under US copyright laws.
  This program is protected by law and is subject to the
  terms and conditions of the license agreement from Synopsys.
  Use of this program is your acceptance to be bound by the
  license agreement. HSPICE is the trademark of Synopsys, Inc.
  Input File: 8-bit dynamic manchester carry-generation chain.sp                
  Command line options: -mt 12 -i 8-bit dynamic manchester carry-generation chain.sp -o 8-bit dynamic manchester carry-generation chain.lis
  lic:  
  lic: FLEXlm: v10.9.8 
  lic: USER:   User                 HOSTNAME: LAPTOP-HIOSMBNM 
  lic: HOSTID: "a036bc64ac5e 009337e9bab9 005056c00001 005056c00008 009337e9bab5
  009337e9bab6 029337e
  lic: Using FLEXlm license file: 
  lic: 27000@LAPTOP-HIOSMBNM 
  lic: Checkout 1 hspice 
  lic: License/Maintenance for hspice will expire on 30-dec-2030/2029.2029 
  lic: 1(in_use)/99(total) FLOATING license(s) on SERVER 27000@LAPTOP-HIOSMBNM 
  lic:   
 Init: read install configuration file: C:\synopsys\Hspice_J-2014.09-2\meta.cfg
  **warning** (8-bit dynamic manchester carry-generation chain.sp:12) Global net name, "vdd", in subckt pin list. The pin will be connected to the local net. Recommend to not use global net names in subckt pin lists.
1****** HSPICE -- J-2014.09-2 64-BIT (Oct 22 2014) win64 ******                 
 ******  
 8-bit dynamic manchester carry-generation chain

 ****** circuit name directory
 circuit number to circuit name directory
   number circuitname                     definition         multiplier
        0 main circuit
        1 xo1.                            nand1              1.00 
        2 xo2.                            inv1               1.00 
        3 xb1.                            nand1              1.00 
        4 xb2.                            inv1               1.00 
        5 xc5.                            xor1               1.00 
        6 xd5.                            xor1               1.00 
        7 xi1.                            cgc                1.00 
        8 xj2.                            cgc                1.00 
        9 xk1.                            cgc                1.00 
       10 xl2.                            cgc                1.00 
       11 xm1.                            cgc                1.00 
       12 xn2.                            cgc                1.00 
       13 xo3.                            cgc                1.00 
       14 xp2.                            cgc                1.00 
       15 xc5.xa1.                        inv1               1.00 
       16 xc5.xb1.                        inv1               1.00 
       17 xd5.xa1.                        inv1               1.00 
       18 xd5.xb1.                        inv1               1.00 
       19 xi1.xe1.                        inv1               1.00 
       20 xi1.xf2.                        inv1               1.00 
       21 xj2.xe1.                        inv1               1.00 
       22 xj2.xf2.                        inv1               1.00 
       23 xk1.xe1.                        inv1               1.00 
       24 xk1.xf2.                        inv1               1.00 
       25 xl2.xe1.                        inv1               1.00 
       26 xl2.xf2.                        inv1               1.00 
       27 xm1.xe1.                        inv1               1.00 
       28 xm1.xf2.                        inv1               1.00 
       29 xn2.xe1.                        inv1               1.00 
       30 xn2.xf2.                        inv1               1.00 
       31 xo3.xe1.                        inv1               1.00 
       32 xo3.xf2.                        inv1               1.00 
       33 xp2.xe1.                        inv1               1.00 
       34 xp2.xf2.                        inv1               1.00 
  **info** (8-bit dynamic manchester carry-generation chain.sp:70) DC voltage reset to initial transient source value              in source        0:va                  new dc=  0.1800D+01
  **warning** (8-bit dynamic manchester carry-generation chain.sp:9) Both nodes of element vgnd are connected together; Line ignored.
 

  
      
 **info** set option symb=1 internally to help for convergence.
 *****************************************************************
 ******  option summary
 ******
 runlvl  = 3         bypass  = 2         
  lic: MT Count(12), require 5 extra license token 
  lic: Using FLEXlm license file: 
  lic: 27000@LAPTOP-HIOSMBNM 
  lic: Checkout 6 hspice 
  lic: License/Maintenance for hspice will expire on 30-dec-2030/2029.2029 
  lic: 6(in_use)/99(total) FLOATING license(s) on SERVER 27000@LAPTOP-HIOSMBNM 
  lic:   
  Opening plot unit= 79
 file=8-bit dynamic manchester carry-generation chain.pa0

 **info** dc convergence successful at Newton-Raphson method 
1****** HSPICE -- J-2014.09-2 64-BIT (Oct 22 2014) win64 ******                 
 ******  
 8-bit dynamic manchester carry-generation chain

 ****** operating point information tnom=  25.000 temp=  25.000 ******
 ****** operating point status is voltage   simulation time is     0.     
     node    =voltage       node    =voltage       node    =voltage

 + 0:a       =   1.8000   0:a0      =   1.8000   0:b       =   1.8000 
 + 0:b0      =   1.8000   0:c0      =  10.9565n  0:c1      =  10.9565n
 + 0:c2      =  10.9565n  0:c3      =  10.9565n  0:c4      =  10.9565n
 + 0:c5      =  10.9565n  0:c6      =  10.9565n  0:c7      =  10.9565n
 + 0:ci      =   0.       0:clk     =   0.       0:g0      =   1.8000 
 + 0:g0_     =  21.6693n  0:g1      =   1.8000   0:g1_     =  21.6693n
 + 0:p0      =  33.1200n  0:p1      =  33.1200n  0:vdd     =   1.8000 
 + 1:net     =  10.8346n  3:net     =  10.8346n  5:aout    =  10.9565n
 + 5:bout    =  10.9565n  5:net1    =   1.8000   5:net2    = 402.3406m
 + 5:net3    =  16.5600n  5:net4    =  16.3575n  6:aout    =  10.9565n
 + 6:bout    =  10.9565n  6:net1    =   1.8000   6:net2    = 402.3406m
 + 6:net3    =  16.5600n  6:net4    =  16.3575n  7:cout3   =   1.8000 
 + 7:net     =   1.5650   7:out1    =   1.8000   8:cout3   =   1.8000 
 + 8:net     =   1.5650   8:out1    =   1.8000   9:cout3   =   1.8000 
 + 9:net     =   1.5650   9:out1    =   1.8000  10:cout3   =   1.8000 
 +10:net     =   1.5650  10:out1    =   1.8000  11:cout3   =   1.8000 
 +11:net     =   1.5650  11:out1    =   1.8000  12:cout3   =   1.8000 
 +12:net     =   1.5650  12:out1    =   1.8000  13:cout3   =   1.8000 
 +13:net     =   1.5650  13:out1    =   1.8000  14:cout3   =   1.8000 
 +14:net     =   1.5650  14:out1    =   1.8000 

 ******  
 8-bit dynamic manchester carry-generation chain

 ****** transient analysis tnom=  25.000 temp=  25.000 ******
 delayn1= 259.8495p  targ=  10.4098n   trig=  10.1500n
 delayn2= 603.2575p  targ=  10.7533n   trig=  10.1500n
 delayn3= 939.0740p  targ=  11.0891n   trig=  10.1500n
 delayn4=   1.2777n  targ=  11.4277n   trig=  10.1500n
 delayn5=   1.6166n  targ=  11.7666n   trig=  10.1500n
 delayn6=   1.9535n  targ=  12.1035n   trig=  10.1500n
 delayn7=  20.2662n  targ=  30.4162n   trig=  10.1500n
 delayn8=  20.2535n  targ=  30.4035n   trig=  10.1500n
 pw= 360.1550u  from=   0.          to=  40.0000n
 pdp=  93.5861f

          ***** job concluded
1****** HSPICE -- J-2014.09-2 64-BIT (Oct 22 2014) win64 ******                 
 ******  
 8-bit dynamic manchester carry-generation chain

 ****** job statistics summary tnom=  25.000 temp=  25.000 ******

  ******  HSPICE Threads Information  ******

  Command Line Threads Count :    12
  Available CPU Count        :    20
  Actual Threads Count       :    12


  ****** Statistics of Ignored Elements ******
  Voltage Sources :       1

  ******  Circuit Statistics  ******
  # nodes       =     260 # elements   =     115
  # resistors   =       0 # capacitors =       8 # inductors   =       0
  # mutual_inds =       0 # vccs       =       0 # vcvs        =       0
  # cccs        =       0 # ccvs       =       0 # volt_srcs   =       7
  # curr_srcs   =       0 # diodes     =       0 # bjts        =       0
  # jfets       =       0 # mosfets    =     100 # U elements  =       0
  # T elements  =       0 # W elements =       0 # B elements  =       0
  # S elements  =       0 # P elements =       0 # va device   =       0
  # vector_srcs =       0 # N elements =       0


  ******  Runtime Statistics (seconds)  ******

  analysis           time    # points   tot. iter  conv.iter
  op point           0.01           1          22
  transient          0.13         401        2380         761 rev=        19
  readin             0.01
  errchk             0.01
  setup              0.01
  output             0.00


           peak memory used         57.28 megabytes
           total cpu time            0.16 seconds
           total elapsed time        0.18 seconds
           job started at     16:39:21 07/07/2023
           job ended   at     16:39:22 07/07/2023


  lic: Release hspice token(s) 
 lic: total license checkout elapse time:        0.02(s)
