 ****** HSPICE -- N-2017.12 linux64 (Nov 21 2017) ******                        
  Copyright (c) 1986 - 2024 by Synopsys, Inc. All Rights Reserved.              
  This software and the associated documentation are proprietary
  to Synopsys, Inc. This software may only be used in accordance
  with the terms and conditions of a written license agreement with
  Synopsys, Inc. All other use, reproduction, or distribution of
  this software is strictly prohibited.
  Input File: full.sp                                                           
  Command line options: /eda/synopsys/hspice/2017.12/hspice/linux64/hspice -i full.sp -o full
 lic:  
 lic: FLEXlm: SDK_11.6.8.3 
 lic: USER:   user                 HOSTNAME: centos 
 lic: HOSTID: 00505631ddcc         PID:      28546 
 lic: Using FLEXlm license file: 
 lic: 27000@centos 
 lic: Checkout 1 hspice 
 lic: License/Maintenance for hspice will expire on 30-dec-2101/2100.2100 
 lic: 1(in_use)/99(total) FLOATING license(s) on SERVER 27000@centos 
 lic:   
  **warning** (full.sp:10) Global net name, "vdd", in subckt pin list. The pin will be connected to the local net. Recommend to not use global net names in subckt pin lists.
1****** HSPICE -- N-2017.12 linux64 (Nov 21 2017) ******                        
 ******  
 lab6-1 1-bit full adder (loading c=0.1p)

 ****** circuit name directory
 circuit number to circuit name directory
   number circuitname                     definition         multiplier
        0 main circuit
        1 xadder.                         fulladder          1.00 
        2 xadder.xinvc.                   inv                1.00 
        3 xadder.xinvs.                   inv                1.00 
  **info** (full.sp:53) DC voltage reset to initial transient source value in source 0:va. new dc=0.1800D+01
  **warning** (full.sp:8) Both nodes of element vgnd are connected together; Line ignored.
 

  
      
 **info** set option symb=1 internally to help for convergence.
 *****************************************************************
 ******  option summary
 ******
 runlvl  = 3         bypass  = 2.0000    
  Opening plot unit= 15
 file=full.pa0

 **info** dc convergence successful at Newton-Raphson method 
 ******  
 lab6-1 1-bit full adder (loading c=0.1p)

 ****** operating point information tnom=  25.000 temp=  25.000 ******
 ****** operating point status is voltage   simulation time is     0.     
    node    =voltage      node    =voltage      node    =voltage

 +0:a       =   1.8000  0:b       =   1.8000  0:cin     =   1.8000 
 +0:cout    =   1.8000  0:sum     =   1.8000  0:vdd     =   1.8000 
 +1:n0      = 423.4126m 1:n1      =   1.3129  1:n2      =   1.2283 
 +1:n3      =  69.5150n 1:n4      = 671.1570a 1:n5      =  46.3433n
 +1:n6      =  23.1717n 1:net0    =   1.7716  1:net1    =   1.7308 
 +1:net2    =   1.2948n 1:net3    =   1.9423n 1:netc0   =   3.8845n

 ******
 lab6-1 1-bit full adder (loading c=0.1p)

 ****** transient analysis tnom=  25.000 temp=  25.000 ******
 delayn1= 230.6726p  targ=  61.2807n   trig=  61.0500n
 delayn2= 281.3288p  targ=  81.3313n   trig=  81.0500n
 delayn3= 236.7089p  targ= 101.2867n   trig= 101.0500n
 pw=  23.0475u  from=   0.             to= 320.0000n

          ***** job concluded
 ******  
 lab6-1 1-bit full adder (loading c=0.1p)

 ****** job statistics summary tnom=  25.000 temp=  25.000 ******
  
  
 ******  Machine Information  ******
 CPU:
 model name	: Intel(R) Core(TM) i7-10870H CPU @ 2.20GHz
 cpu MHz	: 2207.497
  
 OS:
 Linux version 3.10.0-693.el7.x86_64 (builder@kbuilder.dev.centos.org) (gcc version 4.8.5 20150623 (Red Hat 4.8.5-16) (GCC) ) #1 SMP Tue Aug 22 21:09:27 UTC 2017


  ******  HSPICE Threads Information  ******

  Command Line Threads Count :     1
  Available CPU Count        :     2
  Actual Threads Count       :     1


  ****** Statistics of Ignored Elements ******
  Voltage Sources :       1

  ******  Circuit Statistics  ******
  # nodes       =      75 # elements   =      34
  # resistors   =       0 # capacitors =       2 # inductors   =       0
  # mutual_inds =       0 # vccs       =       0 # vcvs        =       0
  # cccs        =       0 # ccvs       =       0 # volt_srcs   =       4
  # curr_srcs   =       0 # diodes     =       0 # bjts        =       0
  # jfets       =       0 # mosfets    =      28 # U elements  =       0
  # T elements  =       0 # W elements =       0 # B elements  =       0
  # S elements  =       0 # P elements =       0 # va device   =       0
  # vector_srcs =       0 # N elements =       0


  ******  Runtime Statistics (seconds)  ******

  analysis           time    # points   tot. iter  conv.iter
  op point           0.01           1          38
  transient          0.08        3201        1300         447 rev=        18
  readin             0.01
  errchk             0.00
  setup              0.00
  output             0.00


           peak memory used        310.34 megabytes
           total cpu time            0.10 seconds
           total elapsed time        0.07 seconds
           job started at     23:15:38 04/13/2024
           job ended   at     23:15:38 04/13/2024


 lic: Release hspice token(s) 
 lic: total license checkout elapse time:        0.02(s)
