$DATA1 SOURCE='HSPICE' VERSION='N-2017.12 linux64' PARAM_COUNT=0
.TITLE '8-input nand (loading c=0.05p)'
 delayn           pw               pdp              temper          
 alter#          
  5.365e-10        1.373e-05        7.366e-15         25.0000       
1               
