$DATA1 SOURCE='HSPICE' VERSION='J-2014.09-2 64-BIT'
.TITLE '4-input nor'
 k                delayn1          pw               pdp             
                  temper           alter#          
  2.000e-14        6.400e-11        5.997e-06        3.838e-16      
                    25.0000        1               
  6.000e-14        1.174e-10        1.236e-05        1.450e-15      
                    25.0000        1               
  1.000e-13        1.768e-10        1.929e-05        3.411e-15      
                    25.0000        1               
  1.400e-13        2.340e-10        2.575e-05        6.026e-15      
                    25.0000        1               
  1.800e-13        2.846e-10        3.193e-05        9.087e-15      
                    25.0000        1               
  2.200e-13        3.316e-10        3.744e-05        1.241e-14      
                    25.0000        1               
  2.600e-13        3.495e-10        4.190e-05        1.464e-14      
                    25.0000        1               
  3.000e-13        3.533e-10        4.535e-05        1.602e-14      
                    25.0000        1               
