$DATA1 SOURCE='HSPICE' VERSION='N-2017.12 linux64' PARAM_COUNT=1
.TITLE '2-input inv (loading c=0.01p)'
 k                delayn           pw               pdp             
                  temper           alter#          
  3.000e-07        1.178e-11        4.650e-06        5.479e-17      
                    25.0000        1               
  4.000e-07        1.184e-11        5.050e-06        5.978e-17      
                    25.0000        1               
  5.000e-07        1.192e-11        5.369e-06        6.400e-17      
                    25.0000        1               
  6.000e-07        1.199e-11        5.766e-06        6.913e-17      
                    25.0000        1               
  7.000e-07        1.204e-11        6.162e-06        7.420e-17      
                    25.0000        1               
  8.000e-07        1.208e-11        6.558e-06        7.922e-17      
                    25.0000        1               
  9.000e-07        1.211e-11        6.992e-06        8.466e-17      
                    25.0000        1               
  1.000e-06        1.213e-11        7.388e-06        8.958e-17      
                    25.0000        1               
  1.100e-06        1.214e-11        7.798e-06        9.464e-17      
                    25.0000        1               
  1.200e-06        1.214e-11        8.199e-06        9.957e-17      
                    25.0000        1               
  1.300e-06        1.215e-11        8.600e-06        1.045e-16      
                    25.0000        1               
  1.400e-06        1.215e-11        8.997e-06        1.093e-16      
                    25.0000        1               
  1.500e-06        1.215e-11        9.388e-06        1.140e-16      
                    25.0000        1               
  1.600e-06        1.214e-11        9.790e-06        1.189e-16      
                    25.0000        1               
  1.700e-06        1.214e-11        1.020e-05        1.238e-16      
                    25.0000        1               
  1.800e-06        1.214e-11        1.063e-05        1.291e-16      
                    25.0000        1               
  1.900e-06        1.213e-11        1.100e-05        1.334e-16      
                    25.0000        1               
  2.000e-06        1.213e-11        1.139e-05        1.382e-16      
                    25.0000        1               
  2.100e-06        1.212e-11        1.179e-05        1.429e-16      
                    25.0000        1               
  2.200e-06        1.212e-11        1.219e-05        1.477e-16      
                    25.0000        1               
  2.300e-06        1.211e-11        1.259e-05        1.524e-16      
                    25.0000        1               
  2.400e-06        1.211e-11        1.298e-05        1.572e-16      
                    25.0000        1               
  2.500e-06        1.210e-11        1.338e-05        1.620e-16      
                    25.0000        1               
  2.600e-06        1.210e-11        1.378e-05        1.667e-16      
                    25.0000        1               
  2.700e-06        1.209e-11        1.418e-05        1.715e-16      
                    25.0000        1               
  2.800e-06        1.209e-11        1.458e-05        1.762e-16      
                    25.0000        1               
  2.900e-06        1.208e-11        1.504e-05        1.818e-16      
                    25.0000        1               
  3.000e-06        1.208e-11        1.539e-05        1.859e-16      
                    25.0000        1               
  3.100e-06        1.207e-11        1.578e-05        1.906e-16      
                    25.0000        1               
  3.200e-06        1.207e-11        1.618e-05        1.952e-16      
                    25.0000        1               
  3.300e-06        1.207e-11        1.657e-05        1.999e-16      
                    25.0000        1               
  3.400e-06        1.206e-11        1.697e-05        2.047e-16      
                    25.0000        1               
  3.500e-06        1.206e-11        1.728e-05        2.084e-16      
                    25.0000        1               
  3.600e-06        1.206e-11        1.768e-05        2.131e-16      
                    25.0000        1               
  3.700e-06        1.205e-11        1.807e-05        2.178e-16      
                    25.0000        1               
  3.800e-06        1.205e-11        1.847e-05        2.225e-16      
                    25.0000        1               
  3.900e-06        1.205e-11        1.887e-05        2.273e-16      
                    25.0000        1               
  4.000e-06        1.204e-11        1.926e-05        2.320e-16      
                    25.0000        1               
  4.100e-06        1.204e-11        1.966e-05        2.367e-16      
                    25.0000        1               
  4.200e-06        1.204e-11        2.006e-05        2.414e-16      
                    25.0000        1               
  4.300e-06        1.203e-11        2.047e-05        2.464e-16      
                    25.0000        1               
  4.400e-06        1.203e-11        2.087e-05        2.511e-16      
                    25.0000        1               
  4.500e-06        1.203e-11        2.127e-05        2.559e-16      
                    25.0000        1               
  4.600e-06        1.203e-11        2.180e-05        2.622e-16      
                    25.0000        1               
  4.700e-06        1.202e-11        2.222e-05        2.672e-16      
                    25.0000        1               
  4.800e-06        1.202e-11        2.259e-05        2.716e-16      
                    25.0000        1               
  4.900e-06        1.202e-11        2.299e-05        2.763e-16      
                    25.0000        1               
  5.000e-06        1.202e-11        2.343e-05        2.816e-16      
                    25.0000        1               
