$DATA1 SOURCE='HSPICE' VERSION='J-2014.09-2 64-BIT'
.TITLE '2-input nor'
 delayn1          pw               pdp              temper          
 alter#          
  9.486e-11        9.343e-06        8.863e-16         25.0000       
 1               
