$DATA1 SOURCE='HSPICE' VERSION='J-2014.09-2 64-BIT'
.TITLE '4-input nor'
 delayn1          pw               pdp              temper          
 alter#          
  1.021e-10        1.062e-05        1.085e-15         25.0000       
 1               
