 ****** HSPICE -- N-2017.12 linux64 (Nov 21 2017) ******                        
  Copyright (c) 1986 - 2024 by Synopsys, Inc. All Rights Reserved.              
  This software and the associated documentation are proprietary
  to Synopsys, Inc. This software may only be used in accordance
  with the terms and conditions of a written license agreement with
  Synopsys, Inc. All other use, reproduction, or distribution of
  this software is strictly prohibited.
  Input File: xor4.sp                                                           
  Command line options: /eda/synopsys/hspice/2017.12/hspice/linux64/hspice -i xor4.sp -o xor4
 lic:  
 lic: FLEXlm: SDK_11.6.8.3 
 lic: USER:   user                 HOSTNAME: centos 
 lic: HOSTID: 00505631ddcc         PID:      19016 
 lic: Using FLEXlm license file: 
 lic: 27000@centos 
 lic: Checkout 1 hspice 
 lic: License/Maintenance for hspice will expire on 30-dec-2101/2100.2100 
 lic: 1(in_use)/99(total) FLOATING license(s) on SERVER 27000@centos 
 lic:   
1****** HSPICE -- N-2017.12 linux64 (Nov 21 2017) ******                        
 ******  
 4-input xor (loading c=0.01p)

 ****** circuit name directory
 circuit number to circuit name directory
   number circuitname                     definition         multiplier
        0 main circuit
        1 xxor4.                          xor                1.00 
        2 xxor4.xinva.                    inv                1.00 
        3 xxor4.xinvb.                    inv                1.00 
        4 xxor4.xinvc.                    inv                1.00 
        5 xxor4.xinvd.                    inv                1.00 
  **info** (xor4.sp:84) DC voltage reset to initial transient source value in source 0:va. new dc=0.0000D+00
  **warning** (xor4.sp:80) Both nodes of element vgnd are connected together; Line ignored.
 

  

  **warning** the following singular supplies were terminated to 1 meg resistor 
          supply       node1            node2
(xor4.sp:83)vin                     0:in               defined in subckt 0                     0:0                defined in subckt 0               
      
 **info** set option symb=1 internally to help for convergence.
 *****************************************************************
 ******  option summary
 ******
 runlvl  = 3         bypass  = 2.0000    
  Opening plot unit= 15
 file=xor4.pa0

 **info** dc convergence successful at Newton-Raphson method 

   *** parameter k =    3.000E-07 ***

 ******
 4-input xor (loading c=0.01p)

 ****** transient analysis tnom=  25.000 temp=  25.000 ******
 delayn= 535.8829p  targ=  10.5409n   trig=  10.0050n
 pw=  11.1712u  from=   0.             to=  50.0000n
 pdp=   5.9865f

          ***** job concluded
 **info** dc convergence successful at Newton-Raphson method 

   *** parameter k =    4.000E-07 ***

 ******
 4-input xor (loading c=0.01p)

 ****** transient analysis tnom=  25.000 temp=  25.000 ******
 delayn= 469.6356p  targ=  10.4746n   trig=  10.0050n
 pw=  13.6230u  from=   0.             to=  50.0000n
 pdp=   6.3978f

          ***** job concluded
 **info** dc convergence successful at Newton-Raphson method 

   *** parameter k =    5.000E-07 ***

 ******
 4-input xor (loading c=0.01p)

 ****** transient analysis tnom=  25.000 temp=  25.000 ******
 delayn= 428.0516p  targ=  10.4331n   trig=  10.0050n
 pw=  16.0991u  from=   0.             to=  50.0000n
 pdp=   6.8912f

          ***** job concluded
 **info** dc convergence successful at Newton-Raphson method 

   *** parameter k =    6.000E-07 ***

 ******
 4-input xor (loading c=0.01p)

 ****** transient analysis tnom=  25.000 temp=  25.000 ******
 delayn= 397.9274p  targ=  10.4029n   trig=  10.0050n
 pw=  18.5504u  from=   0.             to=  50.0000n
 pdp=   7.3817f

          ***** job concluded
 **info** dc convergence successful at Newton-Raphson method 

   *** parameter k =    7.000E-07 ***

 ******
 4-input xor (loading c=0.01p)

 ****** transient analysis tnom=  25.000 temp=  25.000 ******
 delayn= 375.0045p  targ=  10.3800n   trig=  10.0050n
 pw=  21.0503u  from=   0.             to=  50.0000n
 pdp=   7.8940f

          ***** job concluded
 **info** dc convergence successful at Newton-Raphson method 

   *** parameter k =    8.000E-07 ***

 ******
 4-input xor (loading c=0.01p)

 ****** transient analysis tnom=  25.000 temp=  25.000 ******
 delayn= 356.6804p  targ=  10.3617n   trig=  10.0050n
 pw=  23.4926u  from=   0.             to=  50.0000n
 pdp=   8.3793f

          ***** job concluded
 **info** dc convergence successful at Newton-Raphson method 

   *** parameter k =    9.000E-07 ***

 ******
 4-input xor (loading c=0.01p)

 ****** transient analysis tnom=  25.000 temp=  25.000 ******
 delayn= 343.8666p  targ=  10.3489n   trig=  10.0050n
 pw=  25.9662u  from=   0.             to=  50.0000n
 pdp=   8.9289f

          ***** job concluded
 **info** dc convergence successful at Newton-Raphson method 

   *** parameter k =    1.000E-06 ***

 ******
 4-input xor (loading c=0.01p)

 ****** transient analysis tnom=  25.000 temp=  25.000 ******
 delayn= 333.2694p  targ=  10.3383n   trig=  10.0050n
 pw=  28.4590u  from=   0.             to=  50.0000n
 pdp=   9.4845f

          ***** job concluded
 **info** dc convergence successful at Newton-Raphson method 

   *** parameter k =    1.100E-06 ***

 ******
 4-input xor (loading c=0.01p)

 ****** transient analysis tnom=  25.000 temp=  25.000 ******
 delayn= 324.3024p  targ=  10.3293n   trig=  10.0050n
 pw=  30.9082u  from=   0.             to=  50.0000n
 pdp=  10.0236f

          ***** job concluded
 **info** dc convergence successful at Newton-Raphson method 

   *** parameter k =    1.200E-06 ***

 ******
 4-input xor (loading c=0.01p)

 ****** transient analysis tnom=  25.000 temp=  25.000 ******
 delayn= 316.5788p  targ=  10.3216n   trig=  10.0050n
 pw=  33.3737u  from=   0.             to=  50.0000n
 pdp=  10.5654f

          ***** job concluded
 **info** dc convergence successful at Newton-Raphson method 

   *** parameter k =    1.300E-06 ***

 ******
 4-input xor (loading c=0.01p)

 ****** transient analysis tnom=  25.000 temp=  25.000 ******
 delayn= 309.8369p  targ=  10.3148n   trig=  10.0050n
 pw=  35.8869u  from=   0.             to=  50.0000n
 pdp=  11.1191f

          ***** job concluded
 **info** dc convergence successful at Newton-Raphson method 

   *** parameter k =    1.400E-06 ***

 ******
 4-input xor (loading c=0.01p)

 ****** transient analysis tnom=  25.000 temp=  25.000 ******
 delayn= 303.8891p  targ=  10.3089n   trig=  10.0050n
 pw=  38.3661u  from=   0.             to=  50.0000n
 pdp=  11.6590f

          ***** job concluded
 **info** dc convergence successful at Newton-Raphson method 

   *** parameter k =    1.500E-06 ***

 ******
 4-input xor (loading c=0.01p)

 ****** transient analysis tnom=  25.000 temp=  25.000 ******
 delayn= 298.5966p  targ=  10.3036n   trig=  10.0050n
 pw=  40.8691u  from=   0.             to=  50.0000n
 pdp=  12.2034f

          ***** job concluded
 **info** dc convergence successful at Newton-Raphson method 

   *** parameter k =    1.600E-06 ***

 ******
 4-input xor (loading c=0.01p)

 ****** transient analysis tnom=  25.000 temp=  25.000 ******
 delayn= 293.8480p  targ=  10.2988n   trig=  10.0050n
 pw=  43.3759u  from=   0.             to=  50.0000n
 pdp=  12.7459f

          ***** job concluded
 **info** dc convergence successful at Newton-Raphson method 

   *** parameter k =    1.700E-06 ***

 ******
 4-input xor (loading c=0.01p)

 ****** transient analysis tnom=  25.000 temp=  25.000 ******
 delayn= 289.5777p  targ=  10.2946n   trig=  10.0050n
 pw=  45.8583u  from=   0.             to=  50.0000n
 pdp=  13.2795f

          ***** job concluded
 **info** dc convergence successful at Newton-Raphson method 

   *** parameter k =    1.800E-06 ***

 ******
 4-input xor (loading c=0.01p)

 ****** transient analysis tnom=  25.000 temp=  25.000 ******
 delayn= 285.7088p  targ=  10.2907n   trig=  10.0050n
 pw=  48.3552u  from=   0.             to=  50.0000n
 pdp=  13.8155f

          ***** job concluded
 **info** dc convergence successful at Newton-Raphson method 

   *** parameter k =    1.900E-06 ***

 ******
 4-input xor (loading c=0.01p)

 ****** transient analysis tnom=  25.000 temp=  25.000 ******
 delayn= 282.4531p  targ=  10.2875n   trig=  10.0050n
 pw=  50.8425u  from=   0.             to=  50.0000n
 pdp=  14.3606f

          ***** job concluded
 **info** dc convergence successful at Newton-Raphson method 

   *** parameter k =    2.000E-06 ***

 ******
 4-input xor (loading c=0.01p)

 ****** transient analysis tnom=  25.000 temp=  25.000 ******
 delayn= 279.6136p  targ=  10.2846n   trig=  10.0050n
 pw=  53.3243u  from=   0.             to=  50.0000n
 pdp=  14.9102f

          ***** job concluded
 **info** dc convergence successful at Newton-Raphson method 

   *** parameter k =    2.100E-06 ***

 ******
 4-input xor (loading c=0.01p)

 ****** transient analysis tnom=  25.000 temp=  25.000 ******
 delayn= 277.0182p  targ=  10.2820n   trig=  10.0050n
 pw=  55.8134u  from=   0.             to=  50.0000n
 pdp=  15.4613f

          ***** job concluded
 **info** dc convergence successful at Newton-Raphson method 

   *** parameter k =    2.200E-06 ***

 ******
 4-input xor (loading c=0.01p)

 ****** transient analysis tnom=  25.000 temp=  25.000 ******
 delayn= 274.6348p  targ=  10.2796n   trig=  10.0050n
 pw=  58.2582u  from=   0.             to=  50.0000n
 pdp=  15.9997f

          ***** job concluded
 **info** dc convergence successful at Newton-Raphson method 

   *** parameter k =    2.300E-06 ***

 ******
 4-input xor (loading c=0.01p)

 ****** transient analysis tnom=  25.000 temp=  25.000 ******
 delayn= 272.4366p  targ=  10.2774n   trig=  10.0050n
 pw=  60.7987u  from=   0.             to=  50.0000n
 pdp=  16.5638f

          ***** job concluded
 **info** dc convergence successful at Newton-Raphson method 

   *** parameter k =    2.400E-06 ***

 ******
 4-input xor (loading c=0.01p)

 ****** transient analysis tnom=  25.000 temp=  25.000 ******
 delayn= 270.4016p  targ=  10.2754n   trig=  10.0050n
 pw=  63.2909u  from=   0.             to=  50.0000n
 pdp=  17.1140f

          ***** job concluded
 **info** dc convergence successful at Newton-Raphson method 

   *** parameter k =    2.500E-06 ***

 ******
 4-input xor (loading c=0.01p)

 ****** transient analysis tnom=  25.000 temp=  25.000 ******
 delayn= 268.5110p  targ=  10.2735n   trig=  10.0050n
 pw=  65.7855u  from=   0.             to=  50.0000n
 pdp=  17.6641f

          ***** job concluded
 **info** dc convergence successful at Newton-Raphson method 

   *** parameter k =    2.600E-06 ***

 ******
 4-input xor (loading c=0.01p)

 ****** transient analysis tnom=  25.000 temp=  25.000 ******
 delayn= 266.7484p  targ=  10.2717n   trig=  10.0050n
 pw=  68.3039u  from=   0.             to=  50.0000n
 pdp=  18.2200f

          ***** job concluded
 **info** dc convergence successful at Newton-Raphson method 

   *** parameter k =    2.700E-06 ***

 ******
 4-input xor (loading c=0.01p)

 ****** transient analysis tnom=  25.000 temp=  25.000 ******
 delayn= 265.1008p  targ=  10.2701n   trig=  10.0050n
 pw=  70.7976u  from=   0.             to=  50.0000n
 pdp=  18.7685f

          ***** job concluded
 **info** dc convergence successful at Newton-Raphson method 

   *** parameter k =    2.800E-06 ***

 ******
 4-input xor (loading c=0.01p)

 ****** transient analysis tnom=  25.000 temp=  25.000 ******
 delayn= 263.5565p  targ=  10.2686n   trig=  10.0050n
 pw=  73.2877u  from=   0.             to=  50.0000n
 pdp=  19.3155f

          ***** job concluded
 **info** dc convergence successful at Newton-Raphson method 

   *** parameter k =    2.900E-06 ***

 ******
 4-input xor (loading c=0.01p)

 ****** transient analysis tnom=  25.000 temp=  25.000 ******
 delayn= 262.1056p  targ=  10.2671n   trig=  10.0050n
 pw=  75.7807u  from=   0.             to=  50.0000n
 pdp=  19.8626f

          ***** job concluded
 **info** dc convergence successful at Newton-Raphson method 

   *** parameter k =    3.000E-06 ***

 ******
 4-input xor (loading c=0.01p)

 ****** transient analysis tnom=  25.000 temp=  25.000 ******
 delayn= 260.7394p  targ=  10.2657n   trig=  10.0050n
 pw=  78.2758u  from=   0.             to=  50.0000n
 pdp=  20.4096f

          ***** job concluded
 **info** dc convergence successful at Newton-Raphson method 

   *** parameter k =    3.100E-06 ***

 ******
 4-input xor (loading c=0.01p)

 ****** transient analysis tnom=  25.000 temp=  25.000 ******
 delayn= 259.4503p  targ=  10.2645n   trig=  10.0050n
 pw=  80.7717u  from=   0.             to=  50.0000n
 pdp=  20.9563f

          ***** job concluded
 **info** dc convergence successful at Newton-Raphson method 

   *** parameter k =    3.200E-06 ***

 ******
 4-input xor (loading c=0.01p)

 ****** transient analysis tnom=  25.000 temp=  25.000 ******
 delayn= 258.2317p  targ=  10.2632n   trig=  10.0050n
 pw=  83.2691u  from=   0.             to=  50.0000n
 pdp=  21.5027f

          ***** job concluded
 **info** dc convergence successful at Newton-Raphson method 

   *** parameter k =    3.300E-06 ***

 ******
 4-input xor (loading c=0.01p)

 ****** transient analysis tnom=  25.000 temp=  25.000 ******
 delayn= 257.0776p  targ=  10.2621n   trig=  10.0050n
 pw=  85.7672u  from=   0.             to=  50.0000n
 pdp=  22.0488f

          ***** job concluded
 **info** dc convergence successful at Newton-Raphson method 

   *** parameter k =    3.400E-06 ***

 ******
 4-input xor (loading c=0.01p)

 ****** transient analysis tnom=  25.000 temp=  25.000 ******
 delayn= 255.9830p  targ=  10.2610n   trig=  10.0050n
 pw=  88.2029u  from=   0.             to=  50.0000n
 pdp=  22.5784f

          ***** job concluded
 **info** dc convergence successful at Newton-Raphson method 

   *** parameter k =    3.500E-06 ***

 ******
 4-input xor (loading c=0.01p)

 ****** transient analysis tnom=  25.000 temp=  25.000 ******
 delayn= 254.9430p  targ=  10.2599n   trig=  10.0050n
 pw=  90.6998u  from=   0.             to=  50.0000n
 pdp=  23.1233f

          ***** job concluded
 **info** dc convergence successful at Newton-Raphson method 

   *** parameter k =    3.600E-06 ***

 ******
 4-input xor (loading c=0.01p)

 ****** transient analysis tnom=  25.000 temp=  25.000 ******
 delayn= 253.9537p  targ=  10.2590n   trig=  10.0050n
 pw=  93.1977u  from=   0.             to=  50.0000n
 pdp=  23.6679f

          ***** job concluded
 **info** dc convergence successful at Newton-Raphson method 

   *** parameter k =    3.700E-06 ***

 ******
 4-input xor (loading c=0.01p)

 ****** transient analysis tnom=  25.000 temp=  25.000 ******
 delayn= 253.0113p  targ=  10.2580n   trig=  10.0050n
 pw=  95.6958u  from=   0.             to=  50.0000n
 pdp=  24.2121f

          ***** job concluded
 **info** dc convergence successful at Newton-Raphson method 

   *** parameter k =    3.800E-06 ***

 ******
 4-input xor (loading c=0.01p)

 ****** transient analysis tnom=  25.000 temp=  25.000 ******
 delayn= 252.1125p  targ=  10.2571n   trig=  10.0050n
 pw=  98.1945u  from=   0.             to=  50.0000n
 pdp=  24.7561f

          ***** job concluded
 **info** dc convergence successful at Newton-Raphson method 

   *** parameter k =    3.900E-06 ***

 ******
 4-input xor (loading c=0.01p)

 ****** transient analysis tnom=  25.000 temp=  25.000 ******
 delayn= 251.2543p  targ=  10.2563n   trig=  10.0050n
 pw= 100.6935u  from=   0.             to=  50.0000n
 pdp=  25.2997f

          ***** job concluded
 **info** dc convergence successful at Newton-Raphson method 

   *** parameter k =    4.000E-06 ***

 ******
 4-input xor (loading c=0.01p)

 ****** transient analysis tnom=  25.000 temp=  25.000 ******
 delayn= 250.4338p  targ=  10.2554n   trig=  10.0050n
 pw= 103.2314u  from=   0.             to=  50.0000n
 pdp=  25.8526f

          ***** job concluded
 **info** dc convergence successful at Newton-Raphson method 

   *** parameter k =    4.100E-06 ***

 ******
 4-input xor (loading c=0.01p)

 ****** transient analysis tnom=  25.000 temp=  25.000 ******
 delayn= 249.6492p  targ=  10.2546n   trig=  10.0050n
 pw= 105.7289u  from=   0.             to=  50.0000n
 pdp=  26.3951f

          ***** job concluded
 **info** dc convergence successful at Newton-Raphson method 

   *** parameter k =    4.200E-06 ***

 ******
 4-input xor (loading c=0.01p)

 ****** transient analysis tnom=  25.000 temp=  25.000 ******
 delayn= 248.8977p  targ=  10.2539n   trig=  10.0050n
 pw= 108.2257u  from=   0.             to=  50.0000n
 pdp=  26.9371f

          ***** job concluded
 **info** dc convergence successful at Newton-Raphson method 

   *** parameter k =    4.300E-06 ***

 ******
 4-input xor (loading c=0.01p)

 ****** transient analysis tnom=  25.000 temp=  25.000 ******
 delayn= 248.1799p  targ=  10.2532n   trig=  10.0050n
 pw= 110.7258u  from=   0.             to=  50.0000n
 pdp=  27.4799f

          ***** job concluded
 **info** dc convergence successful at Newton-Raphson method 

   *** parameter k =    4.400E-06 ***

 ******
 4-input xor (loading c=0.01p)

 ****** transient analysis tnom=  25.000 temp=  25.000 ******
 delayn= 247.4888p  targ=  10.2525n   trig=  10.0050n
 pw= 113.2262u  from=   0.             to=  50.0000n
 pdp=  28.0222f

          ***** job concluded
 **info** dc convergence successful at Newton-Raphson method 

   *** parameter k =    4.500E-06 ***

 ******
 4-input xor (loading c=0.01p)

 ****** transient analysis tnom=  25.000 temp=  25.000 ******
 delayn= 246.8251p  targ=  10.2518n   trig=  10.0050n
 pw= 115.7272u  from=   0.             to=  50.0000n
 pdp=  28.5644f

          ***** job concluded
 **info** dc convergence successful at Newton-Raphson method 

   *** parameter k =    4.600E-06 ***

 ******
 4-input xor (loading c=0.01p)

 ****** transient analysis tnom=  25.000 temp=  25.000 ******
 delayn= 246.1873p  targ=  10.2512n   trig=  10.0050n
 pw= 118.2278u  from=   0.             to=  50.0000n
 pdp=  29.1062f

          ***** job concluded
 **info** dc convergence successful at Newton-Raphson method 

   *** parameter k =    4.700E-06 ***

 ******
 4-input xor (loading c=0.01p)

 ****** transient analysis tnom=  25.000 temp=  25.000 ******
 delayn= 245.5740p  targ=  10.2506n   trig=  10.0050n
 pw= 120.7276u  from=   0.             to=  50.0000n
 pdp=  29.6476f

          ***** job concluded
 **info** dc convergence successful at Newton-Raphson method 

   *** parameter k =    4.800E-06 ***

 ******
 4-input xor (loading c=0.01p)

 ****** transient analysis tnom=  25.000 temp=  25.000 ******
 delayn= 244.9836p  targ=  10.2500n   trig=  10.0050n
 pw= 123.2298u  from=   0.             to=  50.0000n
 pdp=  30.1893f

          ***** job concluded
 **info** dc convergence successful at Newton-Raphson method 

   *** parameter k =    4.900E-06 ***

 ******
 4-input xor (loading c=0.01p)

 ****** transient analysis tnom=  25.000 temp=  25.000 ******
 delayn= 244.4151p  targ=  10.2494n   trig=  10.0050n
 pw= 125.7310u  from=   0.             to=  50.0000n
 pdp=  30.7306f

          ***** job concluded
 **info** dc convergence successful at Newton-Raphson method 

   *** parameter k =    5.000E-06 ***

 ******
 4-input xor (loading c=0.01p)

 ****** transient analysis tnom=  25.000 temp=  25.000 ******
 delayn= 243.8671p  targ=  10.2489n   trig=  10.0050n
 pw= 128.2326u  from=   0.             to=  50.0000n
 pdp=  31.2717f

          ***** job concluded
 ******  
 4-input xor (loading c=0.01p)

 ****** job statistics summary tnom=  25.000 temp=  25.000 ******
  
  
 ******  Machine Information  ******
 CPU:
 model name	: Intel(R) Core(TM) i7-10870H CPU @ 2.20GHz
 cpu MHz	: 2207.203
  
 OS:
 Linux version 3.10.0-693.el7.x86_64 (builder@kbuilder.dev.centos.org) (gcc version 4.8.5 20150623 (Red Hat 4.8.5-16) (GCC) ) #1 SMP Tue Aug 22 21:09:27 UTC 2017


  ******  HSPICE Threads Information  ******

  Command Line Threads Count :     1
  Available CPU Count        :     2
  Actual Threads Count       :     1


  ****** Statistics of Ignored Elements ******
  Voltage Sources :       1

  ******  Circuit Statistics  ******
  # nodes       =     144 # elements   =      60
  # resistors   =       1 # capacitors =       1 # inductors   =       0
  # mutual_inds =       0 # vccs       =       0 # vcvs        =       0
  # cccs        =       0 # ccvs       =       0 # volt_srcs   =       6
  # curr_srcs   =       0 # diodes     =       0 # bjts        =       0
  # jfets       =       0 # mosfets    =      52 # U elements  =       0
  # T elements  =       0 # W elements =       0 # B elements  =       0
  # S elements  =       0 # P elements =       0 # va device   =       0
  # vector_srcs =       0 # N elements =       0


  ******  Runtime Statistics (seconds)  ******

  analysis           time    # points   tot. iter  conv.iter
  op point           0.13           1        1859
  transient          3.44       24048       51302       18242 rev=      1236
  readin             0.03
  errchk             0.01
  setup              0.00
  output             0.00


           peak memory used        311.39 megabytes
           total cpu time            3.60 seconds
           total elapsed time        3.11 seconds
           job started at     02:12:03 03/10/2024
           job ended   at     02:12:06 03/10/2024


 lic: Release hspice token(s) 
 lic: total license checkout elapse time:        0.03(s)
