$DATA1 SOURCE='HSPICE' VERSION='N-2017.12 linux64' PARAM_COUNT=1
.TITLE '4-input xor (loading c=0.01p)'
 k                delayn           pw               pdp             
                  temper           alter#          
  3.000e-07        5.359e-10        1.117e-05        5.986e-15      
                    25.0000        1               
  4.000e-07        4.696e-10        1.362e-05        6.398e-15      
                    25.0000        1               
  5.000e-07        4.281e-10        1.610e-05        6.891e-15      
                    25.0000        1               
  6.000e-07        3.979e-10        1.855e-05        7.382e-15      
                    25.0000        1               
  7.000e-07        3.750e-10        2.105e-05        7.894e-15      
                    25.0000        1               
  8.000e-07        3.567e-10        2.349e-05        8.379e-15      
                    25.0000        1               
  9.000e-07        3.439e-10        2.597e-05        8.929e-15      
                    25.0000        1               
  1.000e-06        3.333e-10        2.846e-05        9.485e-15      
                    25.0000        1               
  1.100e-06        3.243e-10        3.091e-05        1.002e-14      
                    25.0000        1               
  1.200e-06        3.166e-10        3.337e-05        1.057e-14      
                    25.0000        1               
  1.300e-06        3.098e-10        3.589e-05        1.112e-14      
                    25.0000        1               
  1.400e-06        3.039e-10        3.837e-05        1.166e-14      
                    25.0000        1               
  1.500e-06        2.986e-10        4.087e-05        1.220e-14      
                    25.0000        1               
  1.600e-06        2.938e-10        4.338e-05        1.275e-14      
                    25.0000        1               
  1.700e-06        2.896e-10        4.586e-05        1.328e-14      
                    25.0000        1               
  1.800e-06        2.857e-10        4.836e-05        1.382e-14      
                    25.0000        1               
  1.900e-06        2.825e-10        5.084e-05        1.436e-14      
                    25.0000        1               
  2.000e-06        2.796e-10        5.332e-05        1.491e-14      
                    25.0000        1               
  2.100e-06        2.770e-10        5.581e-05        1.546e-14      
                    25.0000        1               
  2.200e-06        2.746e-10        5.826e-05        1.600e-14      
                    25.0000        1               
  2.300e-06        2.724e-10        6.080e-05        1.656e-14      
                    25.0000        1               
  2.400e-06        2.704e-10        6.329e-05        1.711e-14      
                    25.0000        1               
  2.500e-06        2.685e-10        6.579e-05        1.766e-14      
                    25.0000        1               
  2.600e-06        2.667e-10        6.830e-05        1.822e-14      
                    25.0000        1               
  2.700e-06        2.651e-10        7.080e-05        1.877e-14      
                    25.0000        1               
  2.800e-06        2.636e-10        7.329e-05        1.932e-14      
                    25.0000        1               
  2.900e-06        2.621e-10        7.578e-05        1.986e-14      
                    25.0000        1               
  3.000e-06        2.607e-10        7.828e-05        2.041e-14      
                    25.0000        1               
  3.100e-06        2.595e-10        8.077e-05        2.096e-14      
                    25.0000        1               
  3.200e-06        2.582e-10        8.327e-05        2.150e-14      
                    25.0000        1               
  3.300e-06        2.571e-10        8.577e-05        2.205e-14      
                    25.0000        1               
  3.400e-06        2.560e-10        8.820e-05        2.258e-14      
                    25.0000        1               
  3.500e-06        2.549e-10        9.070e-05        2.312e-14      
                    25.0000        1               
  3.600e-06        2.540e-10        9.320e-05        2.367e-14      
                    25.0000        1               
  3.700e-06        2.530e-10        9.570e-05        2.421e-14      
                    25.0000        1               
  3.800e-06        2.521e-10        9.819e-05        2.476e-14      
                    25.0000        1               
  3.900e-06        2.513e-10        1.007e-04        2.530e-14      
                    25.0000        1               
  4.000e-06        2.504e-10        1.032e-04        2.585e-14      
                    25.0000        1               
  4.100e-06        2.496e-10        1.057e-04        2.640e-14      
                    25.0000        1               
  4.200e-06        2.489e-10        1.082e-04        2.694e-14      
                    25.0000        1               
  4.300e-06        2.482e-10        1.107e-04        2.748e-14      
                    25.0000        1               
  4.400e-06        2.475e-10        1.132e-04        2.802e-14      
                    25.0000        1               
  4.500e-06        2.468e-10        1.157e-04        2.856e-14      
                    25.0000        1               
  4.600e-06        2.462e-10        1.182e-04        2.911e-14      
                    25.0000        1               
  4.700e-06        2.456e-10        1.207e-04        2.965e-14      
                    25.0000        1               
  4.800e-06        2.450e-10        1.232e-04        3.019e-14      
                    25.0000        1               
  4.900e-06        2.444e-10        1.257e-04        3.073e-14      
                    25.0000        1               
  5.000e-06        2.439e-10        1.282e-04        3.127e-14      
                    25.0000        1               
