$DATA1 SOURCE='HSPICE' VERSION='J-2014.09-2 64-BIT'
.TITLE 'dynamic_manchester_adder'
 delayn1          pw               pdp              temper          
 alter#          
  5.824e-10        9.048e-04        5.270e-13         25.0000       
 1               
