$DATA1 SOURCE='HSPICE' VERSION='N-2017.12 linux64' PARAM_COUNT=1
.TITLE '2-input nand (loading c=0.01p)'
 k                delayn           pw               pdp             
                  temper           alter#          
  3.000e-07        9.098e-11        3.638e-06        3.310e-16      
                    25.0000        1               
  4.000e-07        7.509e-11        3.802e-06        2.855e-16      
                    25.0000        1               
  5.000e-07        6.548e-11        3.996e-06        2.617e-16      
                    25.0000        1               
  6.000e-07        5.851e-11        4.169e-06        2.439e-16      
                    25.0000        1               
  7.000e-07        5.305e-11        4.291e-06        2.276e-16      
                    25.0000        1               
  8.000e-07        4.920e-11        4.452e-06        2.190e-16      
                    25.0000        1               
  9.000e-07        4.642e-11        4.583e-06        2.127e-16      
                    25.0000        1               
  1.000e-06        4.415e-11        4.687e-06        2.069e-16      
                    25.0000        1               
  1.100e-06        4.224e-11        4.847e-06        2.048e-16      
                    25.0000        1               
  1.200e-06        4.060e-11        5.040e-06        2.047e-16      
                    25.0000        1               
  1.300e-06        3.916e-11        5.168e-06        2.024e-16      
                    25.0000        1               
  1.400e-06        3.787e-11        5.328e-06        2.018e-16      
                    25.0000        1               
  1.500e-06        3.669e-11        5.491e-06        2.015e-16      
                    25.0000        1               
  1.600e-06        3.561e-11        5.614e-06        1.999e-16      
                    25.0000        1               
  1.700e-06        3.460e-11        5.771e-06        1.997e-16      
                    25.0000        1               
  1.800e-06        3.385e-11        5.929e-06        2.007e-16      
                    25.0000        1               
  1.900e-06        3.320e-11        6.088e-06        2.021e-16      
                    25.0000        1               
  2.000e-06        3.261e-11        6.249e-06        2.038e-16      
                    25.0000        1               
  2.100e-06        3.208e-11        6.408e-06        2.055e-16      
                    25.0000        1               
  2.200e-06        3.159e-11        6.577e-06        2.078e-16      
                    25.0000        1               
  2.300e-06        3.115e-11        6.711e-06        2.090e-16      
                    25.0000        1               
  2.400e-06        3.073e-11        6.879e-06        2.114e-16      
                    25.0000        1               
  2.500e-06        3.035e-11        7.036e-06        2.136e-16      
                    25.0000        1               
  2.600e-06        3.000e-11        7.187e-06        2.156e-16      
                    25.0000        1               
  2.700e-06        2.966e-11        7.339e-06        2.177e-16      
                    25.0000        1               
  2.800e-06        2.935e-11        7.494e-06        2.200e-16      
                    25.0000        1               
  2.900e-06        2.906e-11        7.650e-06        2.223e-16      
                    25.0000        1               
  3.000e-06        2.878e-11        7.831e-06        2.253e-16      
                    25.0000        1               
  3.100e-06        2.851e-11        7.963e-06        2.270e-16      
                    25.0000        1               
  3.200e-06        2.826e-11        8.116e-06        2.293e-16      
                    25.0000        1               
  3.300e-06        2.801e-11        8.270e-06        2.317e-16      
                    25.0000        1               
  3.400e-06        2.778e-11        8.424e-06        2.340e-16      
                    25.0000        1               
  3.500e-06        2.755e-11        8.533e-06        2.351e-16      
                    25.0000        1               
  3.600e-06        2.734e-11        8.685e-06        2.374e-16      
                    25.0000        1               
  3.700e-06        2.713e-11        8.837e-06        2.397e-16      
                    25.0000        1               
  3.800e-06        2.692e-11        8.990e-06        2.420e-16      
                    25.0000        1               
  3.900e-06        2.672e-11        9.142e-06        2.443e-16      
                    25.0000        1               
  4.000e-06        2.654e-11        9.300e-06        2.468e-16      
                    25.0000        1               
  4.100e-06        2.636e-11        9.453e-06        2.492e-16      
                    25.0000        1               
  4.200e-06        2.619e-11        9.622e-06        2.520e-16      
                    25.0000        1               
  4.300e-06        2.602e-11        9.775e-06        2.544e-16      
                    25.0000        1               
  4.400e-06        2.586e-11        9.927e-06        2.568e-16      
                    25.0000        1               
  4.500e-06        2.571e-11        1.009e-05        2.593e-16      
                    25.0000        1               
  4.600e-06        2.556e-11        1.024e-05        2.617e-16      
                    25.0000        1               
  4.700e-06        2.541e-11        1.032e-05        2.623e-16      
                    25.0000        1               
  4.800e-06        2.527e-11        1.047e-05        2.647e-16      
                    25.0000        1               
  4.900e-06        2.517e-11        1.063e-05        2.675e-16      
                    25.0000        1               
  5.000e-06        2.507e-11        1.078e-05        2.703e-16      
                    25.0000        1               
