$DATA1 SOURCE='HSPICE' VERSION='J-2014.09-2'
.TITLE '3-input XOR'
 k delayn1 pw pdp temper  alter#
  5.0000e-014	  3.8874e-010	  4.0784e-006	  1.5854e-015	     25.000000 1
  1.0000e-013	  6.7338e-010	  5.6070e-006	  3.7756e-015	     25.000000 1
  1.5000e-013	  9.6564e-010	  7.1420e-006	  6.8966e-015	     25.000000 1
  2.0000e-013	  1.2480e-009	  8.6880e-006	  1.0842e-014	     25.000000 1
  2.5000e-013	  1.5198e-009	  1.0198e-005	  1.5500e-014	     25.000000 1
  3.0000e-013	  1.8245e-009	  1.1744e-005	  2.1427e-014	     25.000000 1
  3.5000e-013	  2.0867e-009	  1.3270e-005	  2.7690e-014	     25.000000 1
  4.0000e-013	  2.3619e-009	  1.4847e-005	  3.5067e-014	     25.000000 1
  4.5000e-013	  2.6544e-009	  1.6344e-005	  4.3383e-014	     25.000000 1
  5.0000e-013	  2.9206e-009	  1.7935e-005	  5.2381e-014	     25.000000 1
