$DATA1 SOURCE='HSPICE' VERSION='J-2014.09-2 64-BIT'
.TITLE '4-input nand'
 k                delayn1          pw               pdp             
                  temper           alter#          
  2.000e-14        1.440e-10        6.151e-06        8.857e-16      
                    25.0000        1               
  6.000e-14        2.838e-10        1.270e-05        3.603e-15      
                    25.0000        1               
  1.000e-13        4.292e-10        1.896e-05        8.136e-15      
                    25.0000        1               
  1.400e-13        5.716e-10        2.593e-05        1.482e-14      
                    25.0000        1               
  1.800e-13        7.353e-10        3.221e-05        2.368e-14      
                    25.0000        1               
  2.200e-13        8.801e-10        3.943e-05        3.470e-14      
                    25.0000        1               
  2.600e-13        1.093e-09        4.737e-05        5.180e-14      
                    25.0000        1               
  3.000e-13        1.231e-09        5.342e-05        6.578e-14      
                    25.0000        1               
