 ****** HSPICE -- J-2014.09-2 64-BIT (Oct 22 2014) win64 ******                 
  Copyright (C) 2014 Synopsys, Inc. All Rights Reserved.                        
  Unpublished-rights reserved under US copyright laws.
  This program is protected by law and is subject to the
  terms and conditions of the license agreement from Synopsys.
  Use of this program is your acceptance to be bound by the
  license agreement. HSPICE is the trademark of Synopsys, Inc.
  Input File: 4-input nand.sp                                                   
  Command line options: -i 4-input nand.sp -o 4-input nand.lis
  lic:  
  lic: FLEXlm: v10.9.8 
  lic: USER:   User                 HOSTNAME: LAPTOP-HIOSMBNM 
  lic: HOSTID: "a036bc64ac5e 009337e9bab9 005056c00001 005056c00008 009337e9bab5
  009337e9bab6 029337e
  lic: Using FLEXlm license file: 
  lic: 27000@LAPTOP-HIOSMBNM 
  lic: Checkout 1 hspice 
  lic: License/Maintenance for hspice will expire on 30-dec-2030/2029.2029 
  lic: 1(in_use)/99(total) FLOATING license(s) on SERVER 27000@LAPTOP-HIOSMBNM 
  lic:   
 Init: read install configuration file: C:\synopsys\Hspice_J-2014.09-2\meta.cfg
  **warning** (4-input nand.sp:12) Global net name, "vdd", in subckt pin list. The pin will be connected to the local net. Recommend to not use global net names in subckt pin lists.
1****** HSPICE -- J-2014.09-2 64-BIT (Oct 22 2014) win64 ******                 
 ******  
 4-input nand

 ****** circuit name directory
 circuit number to circuit name directory
   number circuitname                     definition         multiplier
        0 main circuit
        1 xa1.                            nand1              1.00 
  **info** (4-input nand.sp:30) DC voltage reset to initial transient source value              in source        0:vd                  new dc=  0.1800D+01
  **warning** (4-input nand.sp:9) Both nodes of element vgnd are connected together; Line ignored.
 

  
      
 **info** set option symb=1 internally to help for convergence.
 *****************************************************************
 ******  option summary
 ******
 runlvl  = 3         bypass  = 2         
  Opening plot unit= 79
 file=4-input nand.pa0

 **info** dc convergence successful at Newton-Raphson method 

   *** parameter k =    2.000E-14 ***

 ******  
 4-input nand

 ****** transient analysis tnom=  25.000 temp=  25.000 ******
 delayn1= 143.9925p  targ=  30.2940n   trig=  30.1500n
 pw=   6.1507u  from=   0.          to=  80.0000n
 pdp= 885.6598a

          ***** job concluded
 ******  
 4-input nand

 ****** transient analysis tnom=  25.000 temp=  25.000 ******

   *** parameter k =   60.0000f       ***

 delayn1= 283.8240p  targ=  30.4338n   trig=  30.1500n
 pw=  12.6952u  from=   0.          to=  80.0000n
 pdp=   3.6032f

          ***** job concluded
 ******  
 4-input nand

 ****** transient analysis tnom=  25.000 temp=  25.000 ******

   *** parameter k =  100.0000f       ***

 delayn1= 429.1607p  targ=  30.5792n   trig=  30.1500n
 pw=  18.9582u  from=   0.          to=  80.0000n
 pdp=   8.1361f

          ***** job concluded
 ******  
 4-input nand

 ****** transient analysis tnom=  25.000 temp=  25.000 ******

   *** parameter k =  140.0000f       ***

 delayn1= 571.5532p  targ=  30.7216n   trig=  30.1500n
 pw=  25.9282u  from=   0.          to=  80.0000n
 pdp=  14.8193f

          ***** job concluded
 ******  
 4-input nand

 ****** transient analysis tnom=  25.000 temp=  25.000 ******

   *** parameter k =  180.0000f       ***

 delayn1= 735.2599p  targ=  30.8853n   trig=  30.1500n
 pw=  32.2106u  from=   0.          to=  80.0000n
 pdp=  23.6832f

          ***** job concluded
 ******  
 4-input nand

 ****** transient analysis tnom=  25.000 temp=  25.000 ******

   *** parameter k =  220.0000f       ***

 delayn1= 880.1067p  targ=  31.0301n   trig=  30.1500n
 pw=  39.4314u  from=   0.          to=  80.0000n
 pdp=  34.7038f

          ***** job concluded
 ******  
 4-input nand

 ****** transient analysis tnom=  25.000 temp=  25.000 ******

   *** parameter k =  260.0000f       ***

 delayn1=   1.0935n  targ=  31.2435n   trig=  30.1500n
 pw=  47.3734u  from=   0.          to=  80.0000n
 pdp=  51.8014f

          ***** job concluded
 ******  
 4-input nand

 ****** transient analysis tnom=  25.000 temp=  25.000 ******

   *** parameter k =  300.0000f       ***

 delayn1=   1.2313n  targ=  31.3813n   trig=  30.1500n
 pw=  53.4235u  from=   0.          to=  80.0000n
 pdp=  65.7817f

          ***** job concluded
1****** HSPICE -- J-2014.09-2 64-BIT (Oct 22 2014) win64 ******                 
 ******  
 4-input nand

 ****** job statistics summary tnom=  25.000 temp=  25.000 ******

  ******  HSPICE Threads Information  ******

  Command Line Threads Count :     1
  Available CPU Count        :    20
  Actual Threads Count       :     1


  ****** Statistics of Ignored Elements ******
  Voltage Sources :       1

  ******  Circuit Statistics  ******
  # nodes       =      26 # elements   =      14
  # resistors   =       0 # capacitors =       1 # inductors   =       0
  # mutual_inds =       0 # vccs       =       0 # vcvs        =       0
  # cccs        =       0 # ccvs       =       0 # volt_srcs   =       5
  # curr_srcs   =       0 # diodes     =       0 # bjts        =       0
  # jfets       =       0 # mosfets    =       8 # U elements  =       0
  # T elements  =       0 # W elements =       0 # B elements  =       0
  # S elements  =       0 # P elements =       0 # va device   =       0
  # vector_srcs =       0 # N elements =       0


  ******  Runtime Statistics (seconds)  ******

  analysis           time    # points   tot. iter  conv.iter
  op point           0.00           1           4
  transient          0.07        6408        3742        1391 rev=        81
  readin             0.01
  errchk             0.00
  setup              0.00
  output             0.00


           peak memory used         44.24 megabytes
           total cpu time            0.08 seconds
           total elapsed time        0.11 seconds
           job started at     10:44:13 07/05/2023
           job ended   at     10:44:13 07/05/2023


  lic: Release hspice token(s) 
 lic: total license checkout elapse time:        0.02(s)
