$DATA1 SOURCE='HSPICE' VERSION='J-2014.09-2 64-BIT'
.TITLE '4-input nand'
 k                delayn1          pw               pdp             
                  temper           alter#          
  2.000e-14        1.136e-10        4.790e-06        5.439e-16      
                    25.0000        1               
  6.000e-14        2.565e-10        1.122e-05        2.878e-15      
                    25.0000        1               
  1.000e-13        4.019e-10        1.759e-05        7.071e-15      
                    25.0000        1               
  1.400e-13        5.656e-10        2.500e-05        1.414e-14      
                    25.0000        1               
  1.800e-13        7.371e-10        3.141e-05        2.315e-14      
                    25.0000        1               
  2.200e-13        8.774e-10        3.771e-05        3.309e-14      
                    25.0000        1               
  2.600e-13        1.014e-09        4.379e-05        4.441e-14      
                    25.0000        1               
  3.000e-13        1.148e-09        4.992e-05        5.729e-14      
                    25.0000        1               
