$DATA1 SOURCE='HSPICE' VERSION='N-2017.12 linux64' PARAM_COUNT=0
.TITLE 'one-bit comparator (loading c=0.1p)'
 delayn1          delayn2          delayn3          pw              
 temper           alter#          
  2.661e-10        4.685e-10        2.660e-10        1.874e-04      
   25.0000        1               
