 ****** HSPICE -- J-2014.09-2 64-BIT (Oct 22 2014) win64 ******                 
  Copyright (C) 2014 Synopsys, Inc. All Rights Reserved.                        
  Unpublished-rights reserved under US copyright laws.
  This program is protected by law and is subject to the
  terms and conditions of the license agreement from Synopsys.
  Use of this program is your acceptance to be bound by the
  license agreement. HSPICE is the trademark of Synopsys, Inc.
  Input File: 3-input xor.sp                                                    
  Command line options: -i 3-input xor.sp -o 3-input xor.lis
  lic:  
  lic: FLEXlm: v10.9.8 
  lic: USER:   user                 HOSTNAME: LAPTOP-V0SVEGVF 
  lic: HOSTID: "e8f408ef740e 00ff95ffeb7e 005056c00001 005056c00008 e8f408ef740a
  e8f408ef740b eaf408e
  lic: Using FLEXlm license file: 
  lic: 27000@LAPTOP-V0SVEGVF 
  lic: Checkout 1 hspice 
  lic: License/Maintenance for hspice will expire on 30-dec-2030/2029.2029 
  lic: 1(in_use)/99(total) FLOATING license(s) on SERVER 27000@LAPTOP-V0SVEGVF 
  lic:   
 Init: read install configuration file: C:\synopsys\Hspice_J-2014.09-2\meta.cfg
  **warning** (3-input xor.sp:12) Global net name, "vdd", in subckt pin list. The pin will be connected to the local net. Recommend to not use global net names in subckt pin lists.
1****** HSPICE -- J-2014.09-2 64-BIT (Oct 22 2014) win64 ******                 
 ******  
 3-input xor

 ****** circuit name directory
 circuit number to circuit name directory
   number circuitname                     definition         multiplier
        0 main circuit
        1 xa1.                            xor1               1.00 
        2 xa1.xa1.                        inv1               1.00 
        3 xa1.xb1.                        inv1               1.00 
        4 xa1.xc1.                        inv1               1.00 
  **info** (3-input xor.sp:53) DC voltage reset to initial transient source value              in source        0:va                  new dc=  0.1800D+01
  **warning** (3-input xor.sp:9) Both nodes of element vgnd are connected together; Line ignored.
 

  
      
 **info** set option symb=1 internally to help for convergence.
 *****************************************************************
 ******  option summary
 ******
 runlvl  = 3         bypass  = 2         
  Opening plot unit= 79
 file=3-input xor.pa0

 **info** dc convergence successful at Newton-Raphson method 

   *** parameter k =    5.000E-14 ***

 ******  
 3-input xor

 ****** transient analysis tnom=  25.000 temp=  25.000 ******
 delayn1= 385.5285p  targ= 160.5355n   trig= 160.1500n
 pw=   3.9501u  from=   0.          to= 640.0000n
 pdp=   1.5229f

          ***** job concluded
 ******  
 3-input xor

 ****** transient analysis tnom=  25.000 temp=  25.000 ******

   *** parameter k =  100.0000f       ***

 delayn1= 669.1915p  targ= 160.8192n   trig= 160.1500n
 pw=   5.4776u  from=   0.          to= 640.0000n
 pdp=   3.6656f

          ***** job concluded
 ******  
 3-input xor

 ****** transient analysis tnom=  25.000 temp=  25.000 ******

   *** parameter k =  150.0000f       ***

 delayn1= 956.3749p  targ= 161.1064n   trig= 160.1500n
 pw=   7.0265u  from=   0.          to= 640.0000n
 pdp=   6.7200f

          ***** job concluded
 ******  
 3-input xor

 ****** transient analysis tnom=  25.000 temp=  25.000 ******

   *** parameter k =  200.0000f       ***

 delayn1=   1.2393n  targ= 161.3893n   trig= 160.1500n
 pw=   8.5813u  from=   0.          to= 640.0000n
 pdp=  10.6346f

          ***** job concluded
 ******  
 3-input xor

 ****** transient analysis tnom=  25.000 temp=  25.000 ******

   *** parameter k =  250.0000f       ***

 delayn1=   1.5197n  targ= 161.6697n   trig= 160.1500n
 pw=  10.1299u  from=   0.          to= 640.0000n
 pdp=  15.3947f

          ***** job concluded
 ******  
 3-input xor

 ****** transient analysis tnom=  25.000 temp=  25.000 ******

   *** parameter k =  300.0000f       ***

 delayn1=   1.7965n  targ= 161.9465n   trig= 160.1500n
 pw=  11.6090u  from=   0.          to= 640.0000n
 pdp=  20.8550f

          ***** job concluded
 ******  
 3-input xor

 ****** transient analysis tnom=  25.000 temp=  25.000 ******

   *** parameter k =  350.0000f       ***

 delayn1=   2.1037n  targ= 162.2537n   trig= 160.1500n
 pw=  13.2331u  from=   0.          to= 640.0000n
 pdp=  27.8389f

          ***** job concluded
 ******  
 3-input xor

 ****** transient analysis tnom=  25.000 temp=  25.000 ******

   *** parameter k =  400.0000f       ***

 delayn1=   2.3713n  targ= 162.5213n   trig= 160.1500n
 pw=  14.7267u  from=   0.          to= 640.0000n
 pdp=  34.9220f

          ***** job concluded
 ******  
 3-input xor

 ****** transient analysis tnom=  25.000 temp=  25.000 ******

   *** parameter k =  450.0000f       ***

 delayn1=   2.6347n  targ= 162.7847n   trig= 160.1500n
 pw=  16.2200u  from=   0.          to= 640.0000n
 pdp=  42.7340f

          ***** job concluded
 ******  
 3-input xor

 ****** transient analysis tnom=  25.000 temp=  25.000 ******

   *** parameter k =  500.0000f       ***

 delayn1=   2.9221n  targ= 163.0721n   trig= 160.1500n
 pw=  17.7346u  from=   0.          to= 640.0000n
 pdp=  51.8229f

          ***** job concluded
1****** HSPICE -- J-2014.09-2 64-BIT (Oct 22 2014) win64 ******                 
 ******  
 3-input xor

 ****** job statistics summary tnom=  25.000 temp=  25.000 ******

  ******  HSPICE Threads Information  ******

  Command Line Threads Count :     1
  Available CPU Count        :     8
  Actual Threads Count       :     1


  ****** Statistics of Ignored Elements ******
  Voltage Sources :       1

  ******  Circuit Statistics  ******
  # nodes       =      85 # elements   =      35
  # resistors   =       0 # capacitors =       1 # inductors   =       0
  # mutual_inds =       0 # vccs       =       0 # vcvs        =       0
  # cccs        =       0 # ccvs       =       0 # volt_srcs   =       4
  # curr_srcs   =       0 # diodes     =       0 # bjts        =       0
  # jfets       =       0 # mosfets    =      30 # U elements  =       0
  # T elements  =       0 # W elements =       0 # B elements  =       0
  # S elements  =       0 # P elements =       0 # va device   =       0
  # vector_srcs =       0 # N elements =       0


  ******  Runtime Statistics (seconds)  ******

  analysis           time    # points   tot. iter  conv.iter
  op point           0.00           1          22
  transient          0.52       64010       14802        4963 rev=       137
  readin             0.02
  errchk             0.00
  setup              0.00
  output             0.00


           peak memory used         44.27 megabytes
           total cpu time            0.56 seconds
           total elapsed time        0.60 seconds
           job started at     10:17:58 07/06/2023
           job ended   at     10:17:58 07/06/2023


  lic: Release hspice token(s) 
 lic: total license checkout elapse time:        0.03(s)
