$DATA1 SOURCE='HSPICE' VERSION='J-2014.09-2 64-BIT'
.TITLE '3-input xor'
 k                delayn1          pw               pdp             
                  temper           alter#          
  5.000e-14        3.855e-10        3.950e-06        1.523e-15      
                    25.0000        1               
  1.000e-13        6.692e-10        5.478e-06        3.666e-15      
                    25.0000        1               
  1.500e-13        9.564e-10        7.027e-06        6.720e-15      
                    25.0000        1               
  2.000e-13        1.239e-09        8.581e-06        1.063e-14      
                    25.0000        1               
  2.500e-13        1.520e-09        1.013e-05        1.539e-14      
                    25.0000        1               
  3.000e-13        1.796e-09        1.161e-05        2.085e-14      
                    25.0000        1               
  3.500e-13        2.104e-09        1.323e-05        2.784e-14      
                    25.0000        1               
  4.000e-13        2.371e-09        1.473e-05        3.492e-14      
                    25.0000        1               
  4.500e-13        2.635e-09        1.622e-05        4.273e-14      
                    25.0000        1               
  5.000e-13        2.922e-09        1.773e-05        5.182e-14      
                    25.0000        1               
