$DATA1 SOURCE='HSPICE' VERSION='J-2014.09-2 64-BIT'
.TITLE 'pseudo 3-input xor'
 k                delayn1          pw               pdp             
                  temper           alter#          
  5.000e-14        2.996e-10        1.225e-04        3.670e-14      
                    25.0000        1               
  1.000e-13        5.786e-10        1.236e-04        7.151e-14      
                    25.0000        1               
  1.500e-13        8.435e-10        1.247e-04        1.051e-13      
                    25.0000        1               
  2.000e-13        1.117e-09        1.258e-04        1.405e-13      
                    25.0000        1               
  2.500e-13        1.369e-09        1.269e-04        1.738e-13      
                    25.0000        1               
  3.000e-13        1.616e-09        1.280e-04        2.070e-13      
                    25.0000        1               
  3.500e-13        1.904e-09        1.291e-04        2.458e-13      
                    25.0000        1               
  4.000e-13        2.174e-09        1.302e-04        2.831e-13      
                    25.0000        1               
  4.500e-13        2.430e-09        1.313e-04        3.191e-13      
                    25.0000        1               
  5.000e-13        2.683e-09        1.324e-04        3.553e-13      
                    25.0000        1               
