 ****** HSPICE -- J-2014.09-2 64-BIT (Oct 22 2014) win64 ******                 
  Copyright (C) 2014 Synopsys, Inc. All Rights Reserved.                        
  Unpublished-rights reserved under US copyright laws.
  This program is protected by law and is subject to the
  terms and conditions of the license agreement from Synopsys.
  Use of this program is your acceptance to be bound by the
  license agreement. HSPICE is the trademark of Synopsys, Inc.
  Input File: pseudo 3-input xor.sp                                             
  Command line options: -i pseudo 3-input xor.sp -o pseudo 3-input xor.lis
  lic:  
  lic: FLEXlm: v10.9.8 
  lic: USER:   user                 HOSTNAME: LAPTOP-V0SVEGVF 
  lic: HOSTID: "e8f408ef740e 00ff95ffeb7e 005056c00001 005056c00008 e8f408ef740a
  e8f408ef740b eaf408e
  lic: Using FLEXlm license file: 
  lic: 27000@LAPTOP-V0SVEGVF 
  lic: Checkout 1 hspice 
  lic: License/Maintenance for hspice will expire on 30-dec-2030/2029.2029 
  lic: 1(in_use)/99(total) FLOATING license(s) on SERVER 27000@LAPTOP-V0SVEGVF 
  lic:   
 Init: read install configuration file: C:\synopsys\Hspice_J-2014.09-2\meta.cfg
  **warning** (pseudo 3-input xor.sp:12) Global net name, "vdd", in subckt pin list. The pin will be connected to the local net. Recommend to not use global net names in subckt pin lists.
1****** HSPICE -- J-2014.09-2 64-BIT (Oct 22 2014) win64 ******                 
 ******  
 pseudo 3-input xor

 ****** circuit name directory
 circuit number to circuit name directory
   number circuitname                     definition         multiplier
        0 main circuit
        1 xa1.                            xor1               1.00 
        2 xa1.xa1.                        inv1               1.00 
        3 xa1.xb1.                        inv1               1.00 
        4 xa1.xc1.                        inv1               1.00 
  **info** (pseudo 3-input xor.sp:42) DC voltage reset to initial transient source value              in source        0:va                  new dc=  0.1800D+01
  **warning** (pseudo 3-input xor.sp:9) Both nodes of element vgnd are connected together; Line ignored.
 

  
      
 **info** set option symb=1 internally to help for convergence.
 *****************************************************************
 ******  option summary
 ******
 runlvl  = 3         bypass  = 2         
  Opening plot unit= 79
 file=pseudo 3-input xor.pa0

 **info** dc convergence successful at Newton-Raphson method 

   *** parameter k =    5.000E-14 ***

 ******  
 pseudo 3-input xor

 ****** transient analysis tnom=  25.000 temp=  25.000 ******
 delayn1= 299.5787p  targ= 160.4496n   trig= 160.1500n
 pw= 122.4975u  from=   0.          to= 640.0000n
 pdp=  36.6977f

          ***** job concluded
 ******  
 pseudo 3-input xor

 ****** transient analysis tnom=  25.000 temp=  25.000 ******

   *** parameter k =  100.0000f       ***

 delayn1= 578.5809p  targ= 160.7286n   trig= 160.1500n
 pw= 123.6003u  from=   0.          to= 640.0000n
 pdp=  71.5128f

          ***** job concluded
 ******  
 pseudo 3-input xor

 ****** transient analysis tnom=  25.000 temp=  25.000 ******

   *** parameter k =  150.0000f       ***

 delayn1= 843.4596p  targ= 160.9935n   trig= 160.1500n
 pw= 124.6645u  from=   0.          to= 640.0000n
 pdp= 105.1495f

          ***** job concluded
 ******  
 pseudo 3-input xor

 ****** transient analysis tnom=  25.000 temp=  25.000 ******

   *** parameter k =  200.0000f       ***

 delayn1=   1.1172n  targ= 161.2672n   trig= 160.1500n
 pw= 125.7934u  from=   0.          to= 640.0000n
 pdp= 140.5378f

          ***** job concluded
 ******  
 pseudo 3-input xor

 ****** transient analysis tnom=  25.000 temp=  25.000 ******

   *** parameter k =  250.0000f       ***

 delayn1=   1.3690n  targ= 161.5190n   trig= 160.1500n
 pw= 126.9374u  from=   0.          to= 640.0000n
 pdp= 173.7748f

          ***** job concluded
 ******  
 pseudo 3-input xor

 ****** transient analysis tnom=  25.000 temp=  25.000 ******

   *** parameter k =  300.0000f       ***

 delayn1=   1.6163n  targ= 161.7663n   trig= 160.1500n
 pw= 128.0442u  from=   0.          to= 640.0000n
 pdp= 206.9575f

          ***** job concluded
 ******  
 pseudo 3-input xor

 ****** transient analysis tnom=  25.000 temp=  25.000 ******

   *** parameter k =  350.0000f       ***

 delayn1=   1.9037n  targ= 162.0537n   trig= 160.1500n
 pw= 129.1081u  from=   0.          to= 640.0000n
 pdp= 245.7833f

          ***** job concluded
 ******  
 pseudo 3-input xor

 ****** transient analysis tnom=  25.000 temp=  25.000 ******

   *** parameter k =  400.0000f       ***

 delayn1=   2.1742n  targ= 162.3242n   trig= 160.1500n
 pw= 130.2107u  from=   0.          to= 640.0000n
 pdp= 283.1025f

          ***** job concluded
 ******  
 pseudo 3-input xor

 ****** transient analysis tnom=  25.000 temp=  25.000 ******

   *** parameter k =  450.0000f       ***

 delayn1=   2.4302n  targ= 162.5802n   trig= 160.1500n
 pw= 131.2953u  from=   0.          to= 640.0000n
 pdp= 319.0683f

          ***** job concluded
 ******  
 pseudo 3-input xor

 ****** transient analysis tnom=  25.000 temp=  25.000 ******

   *** parameter k =  500.0000f       ***

 delayn1=   2.6834n  targ= 162.8334n   trig= 160.1500n
 pw= 132.3947u  from=   0.          to= 640.0000n
 pdp= 355.2696f

          ***** job concluded
1****** HSPICE -- J-2014.09-2 64-BIT (Oct 22 2014) win64 ******                 
 ******  
 pseudo 3-input xor

 ****** job statistics summary tnom=  25.000 temp=  25.000 ******

  ******  HSPICE Threads Information  ******

  Command Line Threads Count :     1
  Available CPU Count        :     8
  Actual Threads Count       :     1


  ****** Statistics of Ignored Elements ******
  Voltage Sources :       1

  ******  Circuit Statistics  ******
  # nodes       =      55 # elements   =      24
  # resistors   =       0 # capacitors =       1 # inductors   =       0
  # mutual_inds =       0 # vccs       =       0 # vcvs        =       0
  # cccs        =       0 # ccvs       =       0 # volt_srcs   =       4
  # curr_srcs   =       0 # diodes     =       0 # bjts        =       0
  # jfets       =       0 # mosfets    =      19 # U elements  =       0
  # T elements  =       0 # W elements =       0 # B elements  =       0
  # S elements  =       0 # P elements =       0 # va device   =       0
  # vector_srcs =       0 # N elements =       0


  ******  Runtime Statistics (seconds)  ******

  analysis           time    # points   tot. iter  conv.iter
  op point           0.00           1          22
  transient          0.32       64010       12393        4307 rev=       141
  readin             0.02
  errchk             0.00
  setup              0.00
  output             0.00


           peak memory used         44.21 megabytes
           total cpu time            0.33 seconds
           total elapsed time        0.36 seconds
           job started at     10:49:35 07/06/2023
           job ended   at     10:49:36 07/06/2023


  lic: Release hspice token(s) 
 lic: total license checkout elapse time:        0.02(s)
