$DATA1 SOURCE='HSPICE' VERSION='N-2017.12 linux64' PARAM_COUNT=1
.TITLE '4-input nor (loading c=0.01p)'
 k                delayn           pw               pdp             
                  temper           alter#          
  2.500e-07        2.711e-11        2.970e-06        8.053e-17      
                    25.0000        1               
  3.000e-07        2.500e-11        3.214e-06        8.035e-17      
                    25.0000        1               
  3.500e-07        2.373e-11        3.427e-06        8.131e-17      
                    25.0000        1               
  4.000e-07        2.279e-11        3.663e-06        8.349e-17      
                    25.0000        1               
  4.500e-07        2.207e-11        3.908e-06        8.622e-17      
                    25.0000        1               
  5.000e-07        2.148e-11        4.144e-06        8.902e-17      
                    25.0000        1               
  5.500e-07        2.099e-11        4.383e-06        9.202e-17      
                    25.0000        1               
  6.000e-07        2.058e-11        4.624e-06        9.518e-17      
                    25.0000        1               
  6.500e-07        2.023e-11        4.865e-06        9.843e-17      
                    25.0000        1               
  7.000e-07        1.992e-11        5.108e-06        1.018e-16      
                    25.0000        1               
  7.500e-07        1.965e-11        5.350e-06        1.052e-16      
                    25.0000        1               
  8.000e-07        1.941e-11        5.593e-06        1.086e-16      
                    25.0000        1               
  8.500e-07        1.920e-11        5.837e-06        1.121e-16      
                    25.0000        1               
  9.000e-07        1.900e-11        6.082e-06        1.155e-16      
                    25.0000        1               
  9.500e-07        1.882e-11        6.326e-06        1.190e-16      
                    25.0000        1               
  1.000e-06        1.865e-11        6.571e-06        1.226e-16      
                    25.0000        1               
  1.050e-06        1.850e-11        6.816e-06        1.261e-16      
                    25.0000        1               
  1.100e-06        1.836e-11        7.061e-06        1.296e-16      
                    25.0000        1               
  1.150e-06        1.822e-11        7.307e-06        1.332e-16      
                    25.0000        1               
  1.200e-06        1.810e-11        7.553e-06        1.367e-16      
                    25.0000        1               
  1.250e-06        1.798e-11        7.799e-06        1.402e-16      
                    25.0000        1               
  1.300e-06        1.787e-11        8.045e-06        1.438e-16      
                    25.0000        1               
  1.350e-06        1.777e-11        8.291e-06        1.473e-16      
                    25.0000        1               
  1.400e-06        1.767e-11        8.538e-06        1.509e-16      
                    25.0000        1               
  1.450e-06        1.757e-11        8.785e-06        1.544e-16      
                    25.0000        1               
  1.500e-06        1.748e-11        9.032e-06        1.579e-16      
                    25.0000        1               
  1.550e-06        1.740e-11        9.279e-06        1.614e-16      
                    25.0000        1               
  1.600e-06        1.732e-11        9.526e-06        1.650e-16      
                    25.0000        1               
  1.650e-06        1.710e-11        9.708e-06        1.660e-16      
                    25.0000        1               
  1.700e-06        1.703e-11        9.953e-06        1.695e-16      
                    25.0000        1               
  1.750e-06        1.696e-11        1.020e-05        1.730e-16      
                    25.0000        1               
  1.800e-06        1.690e-11        1.044e-05        1.764e-16      
                    25.0000        1               
  1.850e-06        1.683e-11        1.068e-05        1.798e-16      
                    25.0000        1               
  1.900e-06        1.677e-11        1.093e-05        1.833e-16      
                    25.0000        1               
  1.950e-06        1.671e-11        1.117e-05        1.868e-16      
                    25.0000        1               
  2.000e-06        1.666e-11        1.142e-05        1.902e-16      
                    25.0000        1               
  2.050e-06        1.660e-11        1.166e-05        1.937e-16      
                    25.0000        1               
  2.100e-06        1.655e-11        1.191e-05        1.971e-16      
                    25.0000        1               
  2.150e-06        1.650e-11        1.215e-05        2.006e-16      
                    25.0000        1               
  2.200e-06        1.645e-11        1.240e-05        2.040e-16      
                    25.0000        1               
  2.250e-06        1.641e-11        1.264e-05        2.074e-16      
                    25.0000        1               
  2.300e-06        1.636e-11        1.289e-05        2.109e-16      
                    25.0000        1               
  2.350e-06        1.633e-11        1.313e-05        2.145e-16      
                    25.0000        1               
  2.400e-06        1.629e-11        1.338e-05        2.179e-16      
                    25.0000        1               
  2.450e-06        1.625e-11        1.362e-05        2.214e-16      
                    25.0000        1               
  2.500e-06        1.621e-11        1.387e-05        2.248e-16      
                    25.0000        1               
