 ****** HSPICE -- N-2017.12 linux64 (Nov 21 2017) ******                        
  Copyright (c) 1986 - 2024 by Synopsys, Inc. All Rights Reserved.              
  This software and the associated documentation are proprietary
  to Synopsys, Inc. This software may only be used in accordance
  with the terms and conditions of a written license agreement with
  Synopsys, Inc. All other use, reproduction, or distribution of
  this software is strictly prohibited.
  Input File: p2.sp                                                             
  Command line options: /eda/synopsys/hspice/2017.12/hspice/linux64/hspice -i p2.sp -o p2
 lic:  
 lic: FLEXlm: SDK_11.6.8.3 
 lic: USER:   user                 HOSTNAME: centos 
 lic: HOSTID: 00505631ddcc         PID:      3152 
 lic: Using FLEXlm license file: 
 lic: 27000@centos 
 lic: Checkout 1 hspice 
 lic: License/Maintenance for hspice will expire on 30-dec-2101/2100.2100 
 lic: 1(in_use)/99(total) FLOATING license(s) on SERVER 27000@centos 
 lic:   
1****** HSPICE -- N-2017.12 linux64 (Nov 21 2017) ******                        
 ******  
 pratice2 from lab3-2 pseudo-nmos 3-input xor (loading c=1p)

 ****** circuit name directory
 circuit number to circuit name directory
   number circuitname                     definition         multiplier
        0 main circuit
        1 xxor3.                          xor                1.00 
        2 x1.                             inv                1.00 
        3 x2.                             inv                1.00 
        4 xxor3.xinva.                    inv                1.00 
        5 xxor3.xinvb.                    inv                1.00 
        6 xxor3.xinvc.                    inv                1.00 
  **info** (p2.sp:58) DC voltage reset to initial transient source value in source 0:va. new dc=0.1800D+01
  **warning** (p2.sp:56) Both nodes of element vgnd are connected together; Line ignored.
 

  
      
 **info** set option symb=1 internally to help for convergence.
 *****************************************************************
 ******  option summary
 ******
 runlvl  = 3         bypass  = 2.0000    
  Opening plot unit= 15
 file=p2.pa0

 **info** dc convergence successful at Newton-Raphson method 
 ******  
 pratice2 from lab3-2 pseudo-nmos 3-input xor (loading c=1p)

 ****** operating point information tnom=  25.000 temp=  25.000 ******
 ****** operating point status is voltage   simulation time is     0.     
    node    =voltage      node    =voltage      node    =voltage

 +0:a       =   1.8000  0:b       =   1.8000  0:c       =   1.8000 
 +0:out     =   1.8000  0:out1    =   1.8000  0:out2    =   9.7844n
 +0:vdd     =   1.8000  1:aout    =   9.7844n 1:bout    =   9.7844n
 +1:cout    =   9.7844n 1:n0      =   8.5598n 1:n1      =   4.2799n
 +1:n2      =   1.5625  1:n3      =   3.5814n 1:n4      =   1.5615 
 +1:n5      =   1.5399  1:n6      =  67.3545m 1:n7      =  16.9726m

 ******
 pratice2 from lab3-2 pseudo-nmos 3-input xor (loading c=1p)

 ****** transient analysis tnom=  25.000 temp=  25.000 ******
 delay000= 955.2203p  targ=   2.2052n   trig=   1.2500n
 delay001=   1.0217n  targ=  42.6717n   trig=  41.6500n
 delay011= 966.8521p  targ= 122.6169n   trig= 121.6500n
 delay100=   1.3701n  targ= 162.6201n   trig= 161.2500n
 delay101= 958.6635p  targ= 202.6087n   trig= 201.6500n
 delay111= 971.9935p  targ= 282.6220n   trig= 281.6500n
 pw= 648.7209u  from=   0.             to= 320.0000n

          ***** job concluded
 ******  
 pratice2 from lab3-2 pseudo-nmos 3-input xor (loading c=1p)

 ****** job statistics summary tnom=  25.000 temp=  25.000 ******
  
  
 ******  Machine Information  ******
 CPU:
 model name	: Intel(R) Core(TM) i7-10870H CPU @ 2.20GHz
 cpu MHz	: 2206.720
  
 OS:
 Linux version 3.10.0-693.el7.x86_64 (builder@kbuilder.dev.centos.org) (gcc version 4.8.5 20150623 (Red Hat 4.8.5-16) (GCC) ) #1 SMP Tue Aug 22 21:09:27 UTC 2017


  ******  HSPICE Threads Information  ******

  Command Line Threads Count :     1
  Available CPU Count        :     2
  Actual Threads Count       :     1


  ****** Statistics of Ignored Elements ******
  Voltage Sources :       1

  ******  Circuit Statistics  ******
  # nodes       =      65 # elements   =      28
  # resistors   =       0 # capacitors =       1 # inductors   =       0
  # mutual_inds =       0 # vccs       =       0 # vcvs        =       0
  # cccs        =       0 # ccvs       =       0 # volt_srcs   =       4
  # curr_srcs   =       0 # diodes     =       0 # bjts        =       0
  # jfets       =       0 # mosfets    =      23 # U elements  =       0
  # T elements  =       0 # W elements =       0 # B elements  =       0
  # S elements  =       0 # P elements =       0 # va device   =       0
  # vector_srcs =       0 # N elements =       0


  ******  Runtime Statistics (seconds)  ******

  analysis           time    # points   tot. iter  conv.iter
  op point           0.00           1          22
  transient          0.05        3201         776         265 rev=         4
  readin             0.01
  errchk             0.00
  setup              0.00
  output             0.00


           peak memory used        290.91 megabytes
           total cpu time            0.06 seconds
           total elapsed time        0.05 seconds
           job started at     23:20:35 05/05/2024
           job ended   at     23:20:35 05/05/2024


 lic: Release hspice token(s) 
 lic: total license checkout elapse time:        0.01(s)
