 ****** HSPICE -- N-2017.12 linux64 (Nov 21 2017) ******                        
  Copyright (c) 1986 - 2024 by Synopsys, Inc. All Rights Reserved.              
  This software and the associated documentation are proprietary
  to Synopsys, Inc. This software may only be used in accordance
  with the terms and conditions of a written license agreement with
  Synopsys, Inc. All other use, reproduction, or distribution of
  this software is strictly prohibited.
  Input File: p2_Chang.sp                                                       
  Command line options: /eda/synopsys/hspice/2017.12/hspice/linux64/hspice -i p2_Chang.sp -o p2_Chang
 lic:  
 lic: FLEXlm: SDK_11.6.8.3 
 lic: USER:   user                 HOSTNAME: centos 
 lic: HOSTID: 00505631ddcc         PID:      12254 
 lic: Using FLEXlm license file: 
 lic: 27000@centos 
 lic: Checkout 1 hspice 
 lic: License/Maintenance for hspice will expire on 30-dec-2101/2100.2100 
 lic: 1(in_use)/99(total) FLOATING license(s) on SERVER 27000@centos 
 lic:   
  **warning** (p2_Chang.sp:10) Global net name, "vdd", in subckt pin list. The pin will be connected to the local net. Recommend to not use global net names in subckt pin lists.
1****** HSPICE -- N-2017.12 linux64 (Nov 21 2017) ******                        
 ******  
 3-input pseudo xor

 ****** circuit name directory
 circuit number to circuit name directory
   number circuitname                     definition         multiplier
        0 main circuit
        1 x1.                             xor                1.00 
        2 x1.xa1.                         inv                1.00 
        3 x1.xb1.                         inv                1.00 
        4 x1.xc1.                         inv                1.00 
  **info** (p2_Chang.sp:56) DC voltage reset to initial transient source value in source 0:va. new dc=0.1800D+01
  **warning** (p2_Chang.sp:51) Both nodes of element vgnd are connected together; Line ignored.
 

  
      
 **info** set option symb=1 internally to help for convergence.
 *****************************************************************
 ******  option summary
 ******
 runlvl  = 3         bypass  = 2.0000    
  Opening plot unit= 15
 file=p2_Chang.pa0

 **info** dc convergence successful at Newton-Raphson method 
 ******  
 3-input pseudo xor

 ****** operating point information tnom=  25.000 temp=  25.000 ******
 ****** operating point status is voltage   simulation time is     0.     
    node    =voltage      node    =voltage      node    =voltage

 +0:a       =   1.8000  0:b       =   1.8000  0:c       =   1.8000 
 +0:out     =   1.8000  0:vdd     =   1.8000  1:aout    =   1.0579n
 +1:bout    =   1.0579n 1:cout    =   1.0579n 1:n1      =   8.5270n
 +1:n2      =   4.2635n 1:n3      =  67.0038m 1:n4      =  18.0623m
 +1:n5      =   1.5627  1:n6      =   1.5408  1:n7      =   1.5630 
 +1:n8      =   3.5785n

 ******
 3-input pseudo xor

 ****** transient analysis tnom=  25.000 temp=  25.000 ******
 delay000=   1.0097n  targ=   2.2597n   trig=   1.2500n
 delay001= 980.4728p  targ=  42.6305n   trig=  41.6500n
 delay011=   1.0110n  targ= 122.6610n   trig= 121.6500n
 delay100=   1.0254n  targ= 162.2754n   trig= 161.2500n
 delay101=   1.0428n  targ= 202.6928n   trig= 201.6500n
 delay111=   1.0492n  targ= 282.6992n   trig= 281.6500n
 pw= 741.9388u  from=   0.             to= 320.0000n

          ***** job concluded
 ******  
 3-input pseudo xor

 ****** job statistics summary tnom=  25.000 temp=  25.000 ******
  
  
 ******  Machine Information  ******
 CPU:
 model name	: Intel(R) Core(TM) i7-10870H CPU @ 2.20GHz
 cpu MHz	: 2207.257
  
 OS:
 Linux version 3.10.0-693.el7.x86_64 (builder@kbuilder.dev.centos.org) (gcc version 4.8.5 20150623 (Red Hat 4.8.5-16) (GCC) ) #1 SMP Tue Aug 22 21:09:27 UTC 2017


  ******  HSPICE Threads Information  ******

  Command Line Threads Count :     1
  Available CPU Count        :     2
  Actual Threads Count       :     1


  ****** Statistics of Ignored Elements ******
  Voltage Sources :       1

  ******  Circuit Statistics  ******
  # nodes       =      55 # elements   =      24
  # resistors   =       0 # capacitors =       1 # inductors   =       0
  # mutual_inds =       0 # vccs       =       0 # vcvs        =       0
  # cccs        =       0 # ccvs       =       0 # volt_srcs   =       4
  # curr_srcs   =       0 # diodes     =       0 # bjts        =       0
  # jfets       =       0 # mosfets    =      19 # U elements  =       0
  # T elements  =       0 # W elements =       0 # B elements  =       0
  # S elements  =       0 # P elements =       0 # va device   =       0
  # vector_srcs =       0 # N elements =       0


  ******  Runtime Statistics (seconds)  ******

  analysis           time    # points   tot. iter  conv.iter
  op point           0.00           1          22
  transient          0.03        3201         759         262 rev=        10
  readin             0.02
  errchk             0.01
  setup              0.00
  output             0.00


           peak memory used        290.91 megabytes
           total cpu time            0.06 seconds
           total elapsed time        0.07 seconds
           job started at     12:51:11 05/10/2024
           job ended   at     12:51:11 05/10/2024


 lic: Release hspice token(s) 
 lic: total license checkout elapse time:        0.03(s)
