 ****** HSPICE -- J-2014.09-2 64-BIT (Oct 22 2014) win64 ******                 
  Copyright (C) 2014 Synopsys, Inc. All Rights Reserved.                        
  Unpublished-rights reserved under US copyright laws.
  This program is protected by law and is subject to the
  terms and conditions of the license agreement from Synopsys.
  Use of this program is your acceptance to be bound by the
  license agreement. HSPICE is the trademark of Synopsys, Inc.
  Input File: 8full-adder1.sp                                                   
  Command line options: -mt 16 -hpp -i 8full-adder1.sp -o 8full-adder1.lis
  lic:  
  lic: FLEXlm: v10.9.8 
  lic: USER:   User                 HOSTNAME: LAPTOP-HIOSMBNM 
  lic: HOSTID: "a036bc64ac5e 009337e9bab9 005056c00001 005056c00008 009337e9bab5
  009337e9bab6 029337e
  lic: Using FLEXlm license file: 
  lic: 27000@LAPTOP-HIOSMBNM 
  lic: Checkout 1 hspice 
  lic: License/Maintenance for hspice will expire on 30-dec-2030/2029.2029 
  lic: 1(in_use)/99(total) FLOATING license(s) on SERVER 27000@LAPTOP-HIOSMBNM 
  lic:   
 Init: read install configuration file: C:\synopsys\Hspice_J-2014.09-2\meta.cfg
 
 ****** Advanced Analog Library - J-2014.09-2 (Oct 22 2014) ****** 
  **warning** (8full-adder1.sp:11) Global net name, "vdd", in subckt pin list. The pin will be connected to the local net. Recommend to not use global net names in subckt pin lists.
1****** HSPICE -- J-2014.09-2 64-BIT (Oct 22 2014) win64 ******                 
 ******  
 8bit-full-adder1

 ****** circuit name directory
 circuit number to circuit name directory
   number circuitname                     definition         multiplier
        0 main circuit
        1 x1.                             full_adder         1.00 
        2 x2.                             full_adder         1.00 
        3 x3.                             full_adder         1.00 
        4 x4.                             full_adder         1.00 
        5 x5.                             full_adder         1.00 
        6 x6.                             full_adder         1.00 
        7 x7.                             full_adder         1.00 
        8 x8.                             full_adder         1.00 
        9 x1.x1.                          inv1               1.00 
       10 x1.x2.                          inv1               1.00 
       11 x2.x1.                          inv1               1.00 
       12 x2.x2.                          inv1               1.00 
       13 x3.x1.                          inv1               1.00 
       14 x3.x2.                          inv1               1.00 
       15 x4.x1.                          inv1               1.00 
       16 x4.x2.                          inv1               1.00 
       17 x5.x1.                          inv1               1.00 
       18 x5.x2.                          inv1               1.00 
       19 x6.x1.                          inv1               1.00 
       20 x6.x2.                          inv1               1.00 
       21 x7.x1.                          inv1               1.00 
       22 x7.x2.                          inv1               1.00 
       23 x8.x1.                          inv1               1.00 
       24 x8.x2.                          inv1               1.00 
  **info** (8full-adder1.sp:67) DC voltage reset to initial transient source value              in source        0:va                  new dc=  0.1800D+01
  **warning** (8full-adder1.sp:8) Both nodes of element vgnd are connected together; Line ignored.
 

  
      
 **info** set option symb=1 internally to help for convergence.
 *****************************************************************
 ******  option summary
 ******
 runlvl  = 3         bypass  = 2         
  Opening plot unit= 79
 file=8full-adder1.pa0

 **info** dc convergence successful at Newton-Raphson method 
1****** HSPICE -- J-2014.09-2 64-BIT (Oct 22 2014) win64 ******                 
 ******  
 8bit-full-adder1

 ****** operating point information tnom=  25.000 temp=  25.000 ******
 ****** operating point status is all       simulation time is     0.     
     node    =voltage       node    =voltage       node    =voltage

 + 0:a       =   1.8000   0:b       =   1.8000   0:c       =   1.8000 
 + 0:c1      =   1.8000   0:c2      =   1.8000   0:c3      =   1.8000 
 + 0:c4      =   1.8000   0:c5      =   1.8000   0:c6      =   1.8000 
 + 0:c7      =   1.8000   0:cout    =   1.8000   0:sum0    =   1.8000 
 + 0:sum1    =   1.8000   0:sum2    =   1.8000   0:sum3    =   1.8000 
 + 0:sum4    =   1.8000   0:sum5    =   1.8000   0:sum6    =   1.8000 
 + 0:sum7    =   1.8000   0:vdd     =   1.8000   1:n1      =   1.6891 
 + 1:n10     =   8.7018n  1:n2      =   1.7675   1:n3      =   1.6223n
 + 1:n4      =   2.4334n  1:n5      = 436.2613m  1:n6      =   1.2291 
 + 1:n7      =   1.3164   1:n8      = 255.2545a  1:n9      =  17.4037n
 + 1:o1      =   4.8668n  1:o2      =  26.1055n  2:n1      =   1.6891 
 + 2:n10     =   8.7018n  2:n2      =   1.7675   2:n3      =   1.6222n
 + 2:n4      =   2.4333n  2:n5      = 436.2613m  2:n6      =   1.2291 
 + 2:n7      =   1.3164   2:n8      = 255.2545a  2:n9      =  17.4037n
 + 2:o1      =   4.8665n  2:o2      =  26.1055n  3:n1      =   1.6891 
 + 3:n10     =   8.7018n  3:n2      =   1.7675   3:n3      =   1.6223n
 + 3:n4      =   2.4334n  3:n5      = 436.2613m  3:n6      =   1.2291 
 + 3:n7      =   1.3164   3:n8      = 255.2545a  3:n9      =  17.4037n
 + 3:o1      =   4.8668n  3:o2      =  26.1055n  4:n1      =   1.6891 
 + 4:n10     =   8.7018n  4:n2      =   1.7675   4:n3      =   1.6223n
 + 4:n4      =   2.4334n  4:n5      = 436.2613m  4:n6      =   1.2291 
 + 4:n7      =   1.3164   4:n8      = 255.2545a  4:n9      =  17.4037n
 + 4:o1      =   4.8668n  4:o2      =  26.1055n  5:n1      =   1.6891 
 + 5:n10     =   8.7018n  5:n2      =   1.7675   5:n3      =   1.6223n
 + 5:n4      =   2.4334n  5:n5      = 436.2613m  5:n6      =   1.2291 
 + 5:n7      =   1.3164   5:n8      = 255.2546a  5:n9      =  17.4037n
 + 5:o1      =   4.8668n  5:o2      =  26.1055n  6:n1      =   1.6891 
 + 6:n10     =   8.7018n  6:n2      =   1.7675   6:n3      =   1.6222n
 + 6:n4      =   2.4333n  6:n5      = 436.2613m  6:n6      =   1.2291 
 + 6:n7      =   1.3164   6:n8      = 255.2544a  6:n9      =  17.4037n
 + 6:o1      =   4.8667n  6:o2      =  26.1055n  7:n1      =   1.6891 
 + 7:n10     =   8.7018n  7:n2      =   1.7675   7:n3      =   1.6222n
 + 7:n4      =   2.4333n  7:n5      = 436.2613m  7:n6      =   1.2291 
 + 7:n7      =   1.3164   7:n8      = 255.2544a  7:n9      =  17.4037n
 + 7:o1      =   4.8666n  7:o2      =  26.1055n  8:n1      =   1.6891 
 + 8:n10     =   8.7018n  8:n2      =   1.7675   8:n3      =   1.6222n
 + 8:n4      =   2.4333n  8:n5      = 436.2613m  8:n6      =   1.2291 
 + 8:n7      =   1.3164   8:n8      = 255.2545a  8:n9      =  17.4037n
 + 8:o1      =   4.8666n  8:o2      =  26.1055n

 
Warning: 4 port signals are assumed local to their subcircuits 
 
Port signals that have the same names as global nets: 
Location  Port name  Subckt         
          "GND"      "FULL_ADDER"   
          "VDD"      "FULL_ADDER"   
          "GND"      "INV1"         
          "VDD"      "INV1"         
 
".opt runlvl= 3" sets ".opt sim_accuracy= 1"  
 
  ******  Summary of Possible Problems in Netlist  *************** 
  Negative resistor              0   
  Negative capacitor             0   
  Negative inductor              0   
  Unconnected node               0   
  Dangling terminal              0   
  Non-rail bulk terminal         0   
  Floating MOS gate              0   
  Floating MOS bulk              0   
  Floating BJT substrate         0   
  Floating controlled input      0   
  Floating current source nodes  0   
  Source loop                    0   
   
Running HSPICE Precision Parallel (HPP) 
Auto-select simulation algortithm 
.   
SSolve ...  
  
NDD 16 
Running 16 threads. 
  
 
License user information 
FLEXLM    v8.5b             
USER      User              
HOSTNAME  LAPTOP-HIOSMBNM   
HOSTID    029337e9bab5      
PID       12600             
 
License file: 27000@LAPTOP-HIOSMBNM 
license  checkout number  expiration date         # in use / total  server                 
 
hspice   8                30-dec-2030/2029.2029  9/99               27000@LAPTOP-HIOSMBNM  
 
0.1% time = 382.664000 ps ( etc = 0.0 sec, ett = 0.0 sec ) 
( wall = 0.0 sec cpu = 0.0 sec s=-1.#IND ) 
10.0% time = 21.000000 ns ( etc = 0.0 sec, ett = 0.0 sec ) 
( wall = 0.0 sec cpu = 0.0 sec s=-1.#IND ) 
20.0% time = 41.000000 ns ( etc = 0.0 sec, ett = 0.0 sec ) 
( wall = 0.0 sec cpu = 0.0 sec s=-1.#IND ) 
30.0% time = 61.000000 ns ( etc = 0.0 sec, ett = 0.0 sec ) 
( wall = 0.0 sec cpu = 0.0 sec s=-1.#IND ) 
40.0% time = 81.000000 ns ( etc = 0.0 sec, ett = 0.0 sec ) 
( wall = 0.0 sec cpu = 0.0 sec s=-1.#IND ) 
50.0% time = 101.000000 ns ( etc = 0.0 sec, ett = 0.0 sec ) 
( wall = 0.0 sec cpu = 0.0 sec s=-1.#IND ) 
60.0% time = 121.000000 ns ( etc = 0.0 sec, ett = 0.0 sec ) 
( wall = 0.0 sec cpu = 0.0 sec s=-1.#IND ) 
70.0% time = 141.000000 ns ( etc = 0.0 sec, ett = 0.0 sec ) 
( wall = 0.0 sec cpu = 0.0 sec s=-1.#IND ) 
80.0% time = 161.000000 ns ( etc = 0.0 sec, ett = 0.0 sec ) 
( wall = 0.0 sec cpu = 0.0 sec s=-1.#IND ) 
90.0% time = 181.000000 ns ( etc = 0.0 sec, ett = 0.0 sec ) 
( wall = 0.0 sec cpu = 0.0 sec s=-1.#IND ) 
100.0% time = 200.000000 ns ( etc = 0.0 sec, ett = 0.0 sec ) 
( wall = 0.0 sec cpu = 0.0 sec s=-1.#IND ) 
 ****** 
 ****** 
 ******  transient analysis       temp=  25 
 ****** 
delayn1=  342.9380p    targ=  101.3929n trig=  101.0500n 
delayn2=  140.0304p    targ=  121.1900n trig=  121.0500n 
delayn3=  140.2682p    targ=  121.1903n trig=  121.0500n 
delayn4=  140.2636p    targ=  121.1903n trig=  121.0500n 
delayn5=  140.2618p    targ=  121.1903n trig=  121.0500n 
delayn6=  140.2584p    targ=  121.1903n trig=  121.0500n 
delayn7=  140.2553p    targ=  121.1903n trig=  121.0500n 
delayn8=  140.2479p    targ=  121.1902n trig=  121.0500n 
delayn9=  1.0761n    targ=  82.1261n trig=  81.0500n 
pw=  42.5563u      from=  0.000e+000  to=  2.000e-007 
 
 
 *************************  
 
Resource Usage for Transient Analysis 
CPU Time     0.58 sec   
Peak Memory  0.00 Mb    
  
Wall Time Statistics:  
  Transient Wall time                   = 1.0000 
  Transient Wall time per timestep      = 0.0020 
  Transient Wall time per timestep-node = 1.6469e-005 
  Total CPU time                       = 0.5800 
  Total CPU time per step              = 0.0011 
 
 
 

          ***** job concluded
1****** HSPICE -- J-2014.09-2 64-BIT (Oct 22 2014) win64 ******                 
 ******  
 8bit-full-adder1

 ****** job statistics summary tnom=  25.000 temp=  25.000 ******

  ******  HSPICE Threads Information  ******

  Command Line Threads Count :    16
  Available CPU Count        :    20
  Actual Threads Count       :    16


  ****** Statistics of Ignored Elements ******
  Voltage Sources :       1

  ******  Circuit Statistics  ******
  # nodes       =     565 # elements   =     237
  # resistors   =       0 # capacitors =       9 # inductors   =       0
  # mutual_inds =       0 # vccs       =       0 # vcvs        =       0
  # cccs        =       0 # ccvs       =       0 # volt_srcs   =       4
  # curr_srcs   =       0 # diodes     =       0 # bjts        =       0
  # jfets       =       0 # mosfets    =     224 # U elements  =       0
  # T elements  =       0 # W elements =       0 # B elements  =       0
  # S elements  =       0 # P elements =       0 # va device   =       0
  # vector_srcs =       0 # N elements =       0


  ******  Runtime Statistics (seconds)  ******

  analysis           time    # points   tot. iter  conv.iter
  op point           0.02           1          34
  transient          1.00         400         919         506  rev= 13 
  readin             0.09
  errchk             0.01
  setup              0.01
  output             0.00
           peak memory used         75.54 megabytes 
           total cpu time            0.72 seconds
           total elapsed time        0.76 seconds
           job started at     13:42:57 07/11/2023
           job ended   at     13:42:58 07/11/2023


  lic: Release hspice token(s) 
 lic: total license checkout elapse time:        0.03(s)
