$DATA1 SOURCE='HSPICE' VERSION='N-2017.12 linux64' PARAM_COUNT=1
.TITLE '4-input nand (loading c=0.01p)'
 k                delayn           pw               pdp             
                  temper           alter#          
  6.000e-07       -3.490e-08        3.188e-06       -1.113e-13      
                    25.0000        1               
  8.000e-07       -3.491e-08        3.508e-06       -1.225e-13      
                    25.0000        1               
  1.000e-06       -3.492e-08        3.842e-06       -1.342e-13      
                    25.0000        1               
  1.200e-06       -3.492e-08        4.166e-06       -1.455e-13      
                    25.0000        1               
  1.400e-06       -3.493e-08        4.500e-06       -1.572e-13      
                    25.0000        1               
  1.600e-06       -3.493e-08        4.836e-06       -1.689e-13      
                    25.0000        1               
  1.800e-06       -3.494e-08        5.172e-06       -1.807e-13      
                    25.0000        1               
  2.000e-06       -3.494e-08        5.520e-06       -1.929e-13      
                    25.0000        1               
  2.200e-06       -3.494e-08        5.852e-06       -2.045e-13      
                    25.0000        1               
  2.400e-06       -3.494e-08        6.156e-06       -2.151e-13      
                    25.0000        1               
  2.600e-06       -3.494e-08        6.488e-06       -2.267e-13      
                    25.0000        1               
  2.800e-06       -3.494e-08        6.827e-06       -2.386e-13      
                    25.0000        1               
  3.000e-06       -3.494e-08        7.152e-06       -2.499e-13      
                    25.0000        1               
  3.200e-06       -3.495e-08        7.486e-06       -2.616e-13      
                    25.0000        1               
  3.400e-06       -3.495e-08        7.818e-06       -2.732e-13      
                    25.0000        1               
  3.600e-06       -3.495e-08        8.150e-06       -2.848e-13      
                    25.0000        1               
  3.800e-06       -3.495e-08        8.483e-06       -2.965e-13      
                    25.0000        1               
  4.000e-06       -3.495e-08        8.815e-06       -3.081e-13      
                    25.0000        1               
  4.200e-06       -3.495e-08        9.148e-06       -3.197e-13      
                    25.0000        1               
  4.400e-06       -3.495e-08        9.481e-06       -3.313e-13      
                    25.0000        1               
  4.600e-06       -3.495e-08        9.813e-06       -3.430e-13      
                    25.0000        1               
  4.800e-06       -3.495e-08        1.015e-05       -3.546e-13      
                    25.0000        1               
  5.000e-06       -3.495e-08        1.048e-05       -3.662e-13      
                    25.0000        1               
  5.200e-06       -3.495e-08        1.081e-05       -3.779e-13      
                    25.0000        1               
  5.400e-06       -3.495e-08        1.114e-05       -3.895e-13      
                    25.0000        1               
  5.600e-06       -3.495e-08        1.148e-05       -4.011e-13      
                    25.0000        1               
  5.800e-06       -3.495e-08        1.181e-05       -4.128e-13      
                    25.0000        1               
  6.000e-06       -3.495e-08        1.214e-05       -4.244e-13      
                    25.0000        1               
  6.200e-06       -3.495e-08        1.248e-05       -4.360e-13      
                    25.0000        1               
  6.400e-06       -3.495e-08        1.281e-05       -4.477e-13      
                    25.0000        1               
  6.600e-06       -3.495e-08        1.314e-05       -4.593e-13      
                    25.0000        1               
  6.800e-06       -3.495e-08        1.347e-05       -4.709e-13      
                    25.0000        1               
  7.000e-06       -3.495e-08        1.381e-05       -4.826e-13      
                    25.0000        1               
  7.200e-06       -3.495e-08        1.414e-05       -4.942e-13      
                    25.0000        1               
  7.400e-06       -3.495e-08        1.447e-05       -5.058e-13      
                    25.0000        1               
  7.600e-06       -3.495e-08        1.480e-05       -5.175e-13      
                    25.0000        1               
  7.800e-06       -3.495e-08        1.514e-05       -5.291e-13      
                    25.0000        1               
  8.000e-06       -3.495e-08        1.547e-05       -5.407e-13      
                    25.0000        1               
  8.200e-06       -3.495e-08        1.580e-05       -5.524e-13      
                    25.0000        1               
  8.400e-06       -3.495e-08        1.614e-05       -5.640e-13      
                    25.0000        1               
  8.600e-06       -3.495e-08        1.647e-05       -5.756e-13      
                    25.0000        1               
  8.800e-06       -3.495e-08        1.680e-05       -5.873e-13      
                    25.0000        1               
  9.000e-06       -3.495e-08        1.713e-05       -5.989e-13      
                    25.0000        1               
  9.200e-06       -3.495e-08        1.747e-05       -6.105e-13      
                    25.0000        1               
  9.400e-06       -3.495e-08        1.780e-05       -6.222e-13      
                    25.0000        1               
  9.600e-06       -3.495e-08        1.813e-05       -6.338e-13      
                    25.0000        1               
  9.800e-06       -3.496e-08        1.847e-05       -6.455e-13      
                    25.0000        1               
  1.000e-05       -3.496e-08        1.880e-05       -6.571e-13      
                    25.0000        1               
