$DATA1 SOURCE='HSPICE' VERSION='J-2014.09-2'
.TITLE '8-bit-fulladder'
 delayn1 pw pdp temper  alter#
    failed	  1.6397e-005	    failed	     25.000000 1
