$DATA1 SOURCE='HSPICE' VERSION='J-2014.09-2 64-BIT'
.TITLE '4-input nand'
 delayn1          pw               pdp              temper          
 alter#          
  1.361e-10        1.247e-05        1.696e-15         25.0000       
 1               
