$DATA1 SOURCE='HSPICE' VERSION='J-2014.09-2 64-BIT'
.TITLE '6-input nand'
 delayn1          pw               pdp              temper          
 alter#          
  1.787e-10        1.758e-05        3.142e-15         25.0000       
 1               
