$DATA1 SOURCE='HSPICE' VERSION='J-2014.09-2 64-BIT'
.TITLE '8-input nand'
 delayn1          pw               pdp              temper          
 alter#          
  2.134e-10        2.438e-05        5.201e-15         25.0000       
 1               
