 ****** HSPICE -- J-2014.09-2 64-BIT (Oct 22 2014) win64 ******                 
  Copyright (C) 2014 Synopsys, Inc. All Rights Reserved.                        
  Unpublished-rights reserved under US copyright laws.
  This program is protected by law and is subject to the
  terms and conditions of the license agreement from Synopsys.
  Use of this program is your acceptance to be bound by the
  license agreement. HSPICE is the trademark of Synopsys, Inc.
  Input File: 8-input nand.sp                                                   
  Command line options: -i 8-input nand.sp -o 8-input nand.lis
  lic:  
  lic: FLEXlm: v10.9.8 
  lic: USER:   user                 HOSTNAME: LAPTOP-V0SVEGVF 
  lic: HOSTID: "e8f408ef740e 00ff95ffeb7e e8f408ef740a e8f408ef740b eaf408ef740a
 " PID:      144656 
  lic: Using FLEXlm license file: 
  lic: 27000@LAPTOP-V0SVEGVF 
  lic: Checkout 1 hspice 
  lic: License/Maintenance for hspice will expire on 30-dec-2030/2029.2029 
  lic: 1(in_use)/99(total) FLOATING license(s) on SERVER 27000@LAPTOP-V0SVEGVF 
  lic:   
 Init: read install configuration file: C:\synopsys\Hspice_J-2014.09-2\meta.cfg
  **warning** (8-input nand.sp:12) Global net name, "vdd", in subckt pin list. The pin will be connected to the local net. Recommend to not use global net names in subckt pin lists.
1****** HSPICE -- J-2014.09-2 64-BIT (Oct 22 2014) win64 ******                 
 ******  
 8-input nand

 ****** circuit name directory
 circuit number to circuit name directory
   number circuitname                     definition         multiplier
        0 main circuit
        1 xa1.                            nand1              1.00 
  **warning** (8-input nand.sp:9) Both nodes of element vgnd are connected together; Line ignored.
  **info** (8-input nand.sp:42) DC voltage reset to initial transient source value              in source        0:vh                  new dc=  0.1800D+01
 

  
      
 **info** set option symb=1 internally to help for convergence.
 *****************************************************************
 ******  option summary
 ******
 runlvl  = 3         bypass  = 2         
  Opening plot unit= 79
 file=8-input nand.pa0

 **info** dc convergence successful at Newton-Raphson method 
1****** HSPICE -- J-2014.09-2 64-BIT (Oct 22 2014) win64 ******                 
 ******  
 8-input nand

 ****** operating point information tnom=  25.000 temp=  25.000 ******
 ****** operating point status is voltage   simulation time is     0.     
    node    =voltage      node    =voltage      node    =voltage

 +0:a       =   1.8000  0:b       =   1.8000  0:c       =   1.8000 
 +0:d       =   1.8000  0:e       =   1.8000  0:f       =   1.8000 
 +0:g       =   1.8000  0:h       =   1.8000  0:out     =  84.8458n
 +0:vdd     =   1.8000  1:net1    =  74.2401n 1:net2    =  63.6343n
 +1:net3    =  53.0286n 1:net4    =  42.4229n 1:net5    =  31.8172n
 +1:net6    =  21.2114n 1:net7    =  10.6057n

 ******  
 8-input nand

 ****** transient analysis tnom=  25.000 temp=  25.000 ******
 delayn1= 213.3687p  targ=  10.3634n   trig=  10.1500n
 pw=  24.3764u  from=   0.          to=  80.0000n
 pdp=   5.2012f

          ***** job concluded
1****** HSPICE -- J-2014.09-2 64-BIT (Oct 22 2014) win64 ******                 
 ******  
 8-input nand

 ****** job statistics summary tnom=  25.000 temp=  25.000 ******

  ******  HSPICE Threads Information  ******

  Command Line Threads Count :     1
  Available CPU Count        :     8
  Actual Threads Count       :     1


  ****** Statistics of Ignored Elements ******
  Voltage Sources :       1

  ******  Circuit Statistics  ******
  # nodes       =      50 # elements   =      26
  # resistors   =       0 # capacitors =       1 # inductors   =       0
  # mutual_inds =       0 # vccs       =       0 # vcvs        =       0
  # cccs        =       0 # ccvs       =       0 # volt_srcs   =       9
  # curr_srcs   =       0 # diodes     =       0 # bjts        =       0
  # jfets       =       0 # mosfets    =      16 # U elements  =       0
  # T elements  =       0 # W elements =       0 # B elements  =       0
  # S elements  =       0 # P elements =       0 # va device   =       0
  # vector_srcs =       0 # N elements =       0


  ******  Runtime Statistics (seconds)  ******

  analysis           time    # points   tot. iter  conv.iter
  op point           0.00           1           4
  transient          0.01         801         566         189 rev=        10
  readin             0.02
  errchk             0.00
  setup              0.00
  output             0.00


           peak memory used         44.16 megabytes
           total cpu time            0.03 seconds
           total elapsed time        0.07 seconds
           job started at     15:12:33 12/23/2022
           job ended   at     15:12:33 12/23/2022


  lic: Release hspice token(s) 
 lic: total license checkout elapse time:        0.03(s)
