$DATA1 SOURCE='HSPICE' VERSION='N-2017.12 linux64' PARAM_COUNT=1
.TITLE '2-input xor (loading c=0.01p)'
 k                delayn           pw               pdp             
                  temper           alter#          
  3.000e-07        1.864e-10        5.785e-06        1.078e-15      
                    25.0000        1               
  4.000e-07        1.573e-10        6.686e-06        1.051e-15      
                    25.0000        1               
  5.000e-07        1.381e-10        7.590e-06        1.048e-15      
                    25.0000        1               
  6.000e-07        1.256e-10        8.491e-06        1.066e-15      
                    25.0000        1               
  7.000e-07        1.160e-10        9.403e-06        1.091e-15      
                    25.0000        1               
  8.000e-07        1.087e-10        1.027e-05        1.117e-15      
                    25.0000        1               
  9.000e-07        1.031e-10        1.118e-05        1.153e-15      
                    25.0000        1               
  1.000e-06        9.849e-11        1.208e-05        1.190e-15      
                    25.0000        1               
  1.100e-06        9.455e-11        1.299e-05        1.228e-15      
                    25.0000        1               
  1.200e-06        9.113e-11        1.389e-05        1.266e-15      
                    25.0000        1               
  1.300e-06        8.837e-11        1.481e-05        1.309e-15      
                    25.0000        1               
  1.400e-06        8.607e-11        1.571e-05        1.353e-15      
                    25.0000        1               
  1.500e-06        8.405e-11        1.662e-05        1.397e-15      
                    25.0000        1               
  1.600e-06        8.225e-11        1.752e-05        1.441e-15      
                    25.0000        1               
  1.700e-06        8.063e-11        1.842e-05        1.486e-15      
                    25.0000        1               
  1.800e-06        7.916e-11        1.933e-05        1.530e-15      
                    25.0000        1               
  1.900e-06        7.782e-11        2.023e-05        1.575e-15      
                    25.0000        1               
  2.000e-06        7.660e-11        2.114e-05        1.619e-15      
                    25.0000        1               
  2.100e-06        7.546e-11        2.204e-05        1.664e-15      
                    25.0000        1               
  2.200e-06        7.441e-11        2.295e-05        1.708e-15      
                    25.0000        1               
  2.300e-06        7.344e-11        2.386e-05        1.752e-15      
                    25.0000        1               
  2.400e-06        7.253e-11        2.476e-05        1.796e-15      
                    25.0000        1               
  2.500e-06        7.168e-11        2.567e-05        1.840e-15      
                    25.0000        1               
  2.600e-06        7.099e-11        2.657e-05        1.886e-15      
                    25.0000        1               
  2.700e-06        7.038e-11        2.748e-05        1.934e-15      
                    25.0000        1               
  2.800e-06        6.982e-11        2.839e-05        1.982e-15      
                    25.0000        1               
  2.900e-06        6.929e-11        2.929e-05        2.030e-15      
                    25.0000        1               
  3.000e-06        6.879e-11        3.024e-05        2.080e-15      
                    25.0000        1               
  3.100e-06        6.832e-11        3.110e-05        2.125e-15      
                    25.0000        1               
  3.200e-06        6.788e-11        3.203e-05        2.174e-15      
                    25.0000        1               
  3.300e-06        6.747e-11        3.294e-05        2.222e-15      
                    25.0000        1               
  3.400e-06        6.708e-11        3.384e-05        2.270e-15      
                    25.0000        1               
  3.500e-06        6.671e-11        3.475e-05        2.318e-15      
                    25.0000        1               
  3.600e-06        6.635e-11        3.560e-05        2.362e-15      
                    25.0000        1               
  3.700e-06        6.602e-11        3.651e-05        2.410e-15      
                    25.0000        1               
  3.800e-06        6.570e-11        3.741e-05        2.458e-15      
                    25.0000        1               
  3.900e-06        6.540e-11        3.832e-05        2.506e-15      
                    25.0000        1               
  4.000e-06        6.510e-11        3.923e-05        2.554e-15      
                    25.0000        1               
  4.100e-06        6.483e-11        4.013e-05        2.602e-15      
                    25.0000        1               
  4.200e-06        6.456e-11        4.104e-05        2.650e-15      
                    25.0000        1               
  4.300e-06        6.431e-11        4.195e-05        2.698e-15      
                    25.0000        1               
  4.400e-06        6.406e-11        4.286e-05        2.745e-15      
                    25.0000        1               
  4.500e-06        6.383e-11        4.376e-05        2.793e-15      
                    25.0000        1               
  4.600e-06        6.360e-11        4.467e-05        2.841e-15      
                    25.0000        1               
  4.700e-06        6.338e-11        4.558e-05        2.889e-15      
                    25.0000        1               
  4.800e-06        6.317e-11        4.649e-05        2.937e-15      
                    25.0000        1               
  4.900e-06        6.297e-11        4.740e-05        2.985e-15      
                    25.0000        1               
  5.000e-06        6.278e-11        4.830e-05        3.032e-15      
                    25.0000        1               
