 ****** HSPICE -- N-2017.12 linux64 (Nov 21 2017) ******                        
  Copyright (c) 1986 - 2024 by Synopsys, Inc. All Rights Reserved.              
  This software and the associated documentation are proprietary
  to Synopsys, Inc. This software may only be used in accordance
  with the terms and conditions of a written license agreement with
  Synopsys, Inc. All other use, reproduction, or distribution of
  this software is strictly prohibited.
  Input File: xor2.sp                                                           
  Command line options: /eda/synopsys/hspice/2017.12/hspice/linux64/hspice -i xor2.sp -o xor2
 lic:  
 lic: FLEXlm: SDK_11.6.8.3 
 lic: USER:   user                 HOSTNAME: centos 
 lic: HOSTID: 00505631ddcc         PID:      5129 
 lic: Using FLEXlm license file: 
 lic: 27000@centos 
 lic: Checkout 1 hspice 
 lic: License/Maintenance for hspice will expire on 30-dec-2101/2100.2100 
 lic: 1(in_use)/99(total) FLOATING license(s) on SERVER 27000@centos 
 lic:   
1****** HSPICE -- N-2017.12 linux64 (Nov 21 2017) ******                        
 ******  
 2-input xor (loading c=0.01p)

 ****** circuit name directory
 circuit number to circuit name directory
   number circuitname                     definition         multiplier
        0 main circuit
        1 xxor2.                          xor                1.00 
        2 xxor2.xinva.                    inv                1.00 
        3 xxor2.xinvb.                    inv                1.00 
  **info** (xor2.sp:34) DC voltage reset to initial transient source value in source 0:va. new dc=0.0000D+00
  **warning** (xor2.sp:31) Both nodes of element vgnd are connected together; Line ignored.
 

  

  **warning** the following singular supplies were terminated to 1 meg resistor 
          supply       node1            node2
(xor2.sp:33)vin                     0:in               defined in subckt 0                     0:0                defined in subckt 0               
      
 **info** set option symb=1 internally to help for convergence.
 *****************************************************************
 ******  option summary
 ******
 runlvl  = 3         bypass  = 2.0000    
  Opening plot unit= 15
 file=xor2.pa0

 **info** dc convergence successful at Newton-Raphson method 

   *** parameter k =    3.000E-07 ***

 ******
 2-input xor (loading c=0.01p)

 ****** transient analysis tnom=  25.000 temp=  25.000 ******
 delayn= 186.3650p  targ=  10.1914n   trig=  10.0050n
 pw=   5.7851u  from=   0.             to=  50.0000n
 pdp=   1.0781f

          ***** job concluded
 **info** dc convergence successful at Newton-Raphson method 

   *** parameter k =    4.000E-07 ***

 ******
 2-input xor (loading c=0.01p)

 ****** transient analysis tnom=  25.000 temp=  25.000 ******
 delayn= 157.2656p  targ=  10.1623n   trig=  10.0050n
 pw=   6.6856u  from=   0.             to=  50.0000n
 pdp=   1.0514f

          ***** job concluded
 **info** dc convergence successful at Newton-Raphson method 

   *** parameter k =    5.000E-07 ***

 ******
 2-input xor (loading c=0.01p)

 ****** transient analysis tnom=  25.000 temp=  25.000 ******
 delayn= 138.0612p  targ=  10.1431n   trig=  10.0050n
 pw=   7.5899u  from=   0.             to=  50.0000n
 pdp=   1.0479f

          ***** job concluded
 **info** dc convergence successful at Newton-Raphson method 

   *** parameter k =    6.000E-07 ***

 ******
 2-input xor (loading c=0.01p)

 ****** transient analysis tnom=  25.000 temp=  25.000 ******
 delayn= 125.5545p  targ=  10.1306n   trig=  10.0050n
 pw=   8.4911u  from=   0.             to=  50.0000n
 pdp=   1.0661f

          ***** job concluded
 **info** dc convergence successful at Newton-Raphson method 

   *** parameter k =    7.000E-07 ***

 ******
 2-input xor (loading c=0.01p)

 ****** transient analysis tnom=  25.000 temp=  25.000 ******
 delayn= 116.0381p  targ=  10.1210n   trig=  10.0050n
 pw=   9.4031u  from=   0.             to=  50.0000n
 pdp=   1.0911f

          ***** job concluded
 **info** dc convergence successful at Newton-Raphson method 

   *** parameter k =    8.000E-07 ***

 ******
 2-input xor (loading c=0.01p)

 ****** transient analysis tnom=  25.000 temp=  25.000 ******
 delayn= 108.6916p  targ=  10.1137n   trig=  10.0050n
 pw=  10.2744u  from=   0.             to=  50.0000n
 pdp=   1.1167f

          ***** job concluded
 **info** dc convergence successful at Newton-Raphson method 

   *** parameter k =    9.000E-07 ***

 ******
 2-input xor (loading c=0.01p)

 ****** transient analysis tnom=  25.000 temp=  25.000 ******
 delayn= 103.1226p  targ=  10.1081n   trig=  10.0050n
 pw=  11.1781u  from=   0.             to=  50.0000n
 pdp=   1.1527f

          ***** job concluded
 **info** dc convergence successful at Newton-Raphson method 

   *** parameter k =    1.000E-06 ***

 ******
 2-input xor (loading c=0.01p)

 ****** transient analysis tnom=  25.000 temp=  25.000 ******
 delayn=  98.4935p  targ=  10.1035n   trig=  10.0050n
 pw=  12.0843u  from=   0.             to=  50.0000n
 pdp=   1.1902f

          ***** job concluded
 **info** dc convergence successful at Newton-Raphson method 

   *** parameter k =    1.100E-06 ***

 ******
 2-input xor (loading c=0.01p)

 ****** transient analysis tnom=  25.000 temp=  25.000 ******
 delayn=  94.5507p  targ=  10.0996n   trig=  10.0050n
 pw=  12.9861u  from=   0.             to=  50.0000n
 pdp=   1.2278f

          ***** job concluded
 **info** dc convergence successful at Newton-Raphson method 

   *** parameter k =    1.200E-06 ***

 ******
 2-input xor (loading c=0.01p)

 ****** transient analysis tnom=  25.000 temp=  25.000 ******
 delayn=  91.1301p  targ=  10.0961n   trig=  10.0050n
 pw=  13.8900u  from=   0.             to=  50.0000n
 pdp=   1.2658f

          ***** job concluded
 **info** dc convergence successful at Newton-Raphson method 

   *** parameter k =    1.300E-06 ***

 ******
 2-input xor (loading c=0.01p)

 ****** transient analysis tnom=  25.000 temp=  25.000 ******
 delayn=  88.3720p  targ=  10.0934n   trig=  10.0050n
 pw=  14.8100u  from=   0.             to=  50.0000n
 pdp=   1.3088f

          ***** job concluded
 **info** dc convergence successful at Newton-Raphson method 

   *** parameter k =    1.400E-06 ***

 ******
 2-input xor (loading c=0.01p)

 ****** transient analysis tnom=  25.000 temp=  25.000 ******
 delayn=  86.0744p  targ=  10.0911n   trig=  10.0050n
 pw=  15.7132u  from=   0.             to=  50.0000n
 pdp=   1.3525f

          ***** job concluded
 **info** dc convergence successful at Newton-Raphson method 

   *** parameter k =    1.500E-06 ***

 ******
 2-input xor (loading c=0.01p)

 ****** transient analysis tnom=  25.000 temp=  25.000 ******
 delayn=  84.0505p  targ=  10.0891n   trig=  10.0050n
 pw=  16.6167u  from=   0.             to=  50.0000n
 pdp=   1.3966f

          ***** job concluded
 **info** dc convergence successful at Newton-Raphson method 

   *** parameter k =    1.600E-06 ***

 ******
 2-input xor (loading c=0.01p)

 ****** transient analysis tnom=  25.000 temp=  25.000 ******
 delayn=  82.2484p  targ=  10.0872n   trig=  10.0050n
 pw=  17.5205u  from=   0.             to=  50.0000n
 pdp=   1.4410f

          ***** job concluded
 **info** dc convergence successful at Newton-Raphson method 

   *** parameter k =    1.700E-06 ***

 ******
 2-input xor (loading c=0.01p)

 ****** transient analysis tnom=  25.000 temp=  25.000 ******
 delayn=  80.6288p  targ=  10.0856n   trig=  10.0050n
 pw=  18.4247u  from=   0.             to=  50.0000n
 pdp=   1.4856f

          ***** job concluded
 **info** dc convergence successful at Newton-Raphson method 

   *** parameter k =    1.800E-06 ***

 ******
 2-input xor (loading c=0.01p)

 ****** transient analysis tnom=  25.000 temp=  25.000 ******
 delayn=  79.1615p  targ=  10.0842n   trig=  10.0050n
 pw=  19.3292u  from=   0.             to=  50.0000n
 pdp=   1.5301f

          ***** job concluded
 **info** dc convergence successful at Newton-Raphson method 

   *** parameter k =    1.900E-06 ***

 ******
 2-input xor (loading c=0.01p)

 ****** transient analysis tnom=  25.000 temp=  25.000 ******
 delayn=  77.8231p  targ=  10.0828n   trig=  10.0050n
 pw=  20.2342u  from=   0.             to=  50.0000n
 pdp=   1.5747f

          ***** job concluded
 **info** dc convergence successful at Newton-Raphson method 

   *** parameter k =    2.000E-06 ***

 ******
 2-input xor (loading c=0.01p)

 ****** transient analysis tnom=  25.000 temp=  25.000 ******
 delayn=  76.5951p  targ=  10.0816n   trig=  10.0050n
 pw=  21.1392u  from=   0.             to=  50.0000n
 pdp=   1.6192f

          ***** job concluded
 **info** dc convergence successful at Newton-Raphson method 

   *** parameter k =    2.100E-06 ***

 ******
 2-input xor (loading c=0.01p)

 ****** transient analysis tnom=  25.000 temp=  25.000 ******
 delayn=  75.4629p  targ=  10.0805n   trig=  10.0050n
 pw=  22.0444u  from=   0.             to=  50.0000n
 pdp=   1.6635f

          ***** job concluded
 **info** dc convergence successful at Newton-Raphson method 

   *** parameter k =    2.200E-06 ***

 ******
 2-input xor (loading c=0.01p)

 ****** transient analysis tnom=  25.000 temp=  25.000 ******
 delayn=  74.4144p  targ=  10.0794n   trig=  10.0050n
 pw=  22.9498u  from=   0.             to=  50.0000n
 pdp=   1.7078f

          ***** job concluded
 **info** dc convergence successful at Newton-Raphson method 

   *** parameter k =    2.300E-06 ***

 ******
 2-input xor (loading c=0.01p)

 ****** transient analysis tnom=  25.000 temp=  25.000 ******
 delayn=  73.4400p  targ=  10.0784n   trig=  10.0050n
 pw=  23.8551u  from=   0.             to=  50.0000n
 pdp=   1.7519f

          ***** job concluded
 **info** dc convergence successful at Newton-Raphson method 

   *** parameter k =    2.400E-06 ***

 ******
 2-input xor (loading c=0.01p)

 ****** transient analysis tnom=  25.000 temp=  25.000 ******
 delayn=  72.5315p  targ=  10.0775n   trig=  10.0050n
 pw=  24.7607u  from=   0.             to=  50.0000n
 pdp=   1.7959f

          ***** job concluded
 **info** dc convergence successful at Newton-Raphson method 

   *** parameter k =    2.500E-06 ***

 ******
 2-input xor (loading c=0.01p)

 ****** transient analysis tnom=  25.000 temp=  25.000 ******
 delayn=  71.6821p  targ=  10.0767n   trig=  10.0050n
 pw=  25.6665u  from=   0.             to=  50.0000n
 pdp=   1.8398f

          ***** job concluded
 **info** dc convergence successful at Newton-Raphson method 

   *** parameter k =    2.600E-06 ***

 ******
 2-input xor (loading c=0.01p)

 ****** transient analysis tnom=  25.000 temp=  25.000 ******
 delayn=  70.9875p  targ=  10.0760n   trig=  10.0050n
 pw=  26.5726u  from=   0.             to=  50.0000n
 pdp=   1.8863f

          ***** job concluded
 **info** dc convergence successful at Newton-Raphson method 

   *** parameter k =    2.700E-06 ***

 ******
 2-input xor (loading c=0.01p)

 ****** transient analysis tnom=  25.000 temp=  25.000 ******
 delayn=  70.3808p  targ=  10.0754n   trig=  10.0050n
 pw=  27.4789u  from=   0.             to=  50.0000n
 pdp=   1.9340f

          ***** job concluded
 **info** dc convergence successful at Newton-Raphson method 

   *** parameter k =    2.800E-06 ***

 ******
 2-input xor (loading c=0.01p)

 ****** transient analysis tnom=  25.000 temp=  25.000 ******
 delayn=  69.8150p  targ=  10.0748n   trig=  10.0050n
 pw=  28.3853u  from=   0.             to=  50.0000n
 pdp=   1.9817f

          ***** job concluded
 **info** dc convergence successful at Newton-Raphson method 

   *** parameter k =    2.900E-06 ***

 ******
 2-input xor (loading c=0.01p)

 ****** transient analysis tnom=  25.000 temp=  25.000 ******
 delayn=  69.2859p  targ=  10.0743n   trig=  10.0050n
 pw=  29.2918u  from=   0.             to=  50.0000n
 pdp=   2.0295f

          ***** job concluded
 **info** dc convergence successful at Newton-Raphson method 

   *** parameter k =    3.000E-06 ***

 ******
 2-input xor (loading c=0.01p)

 ****** transient analysis tnom=  25.000 temp=  25.000 ******
 delayn=  68.7898p  targ=  10.0738n   trig=  10.0050n
 pw=  30.2390u  from=   0.             to=  50.0000n
 pdp=   2.0801f

          ***** job concluded
 **info** dc convergence successful at Newton-Raphson method 

   *** parameter k =    3.100E-06 ***

 ******
 2-input xor (loading c=0.01p)

 ****** transient analysis tnom=  25.000 temp=  25.000 ******
 delayn=  68.3236p  targ=  10.0733n   trig=  10.0050n
 pw=  31.0955u  from=   0.             to=  50.0000n
 pdp=   2.1246f

          ***** job concluded
 **info** dc convergence successful at Newton-Raphson method 

   *** parameter k =    3.200E-06 ***

 ******
 2-input xor (loading c=0.01p)

 ****** transient analysis tnom=  25.000 temp=  25.000 ******
 delayn=  67.8845p  targ=  10.0729n   trig=  10.0050n
 pw=  32.0276u  from=   0.             to=  50.0000n
 pdp=   2.1742f

          ***** job concluded
 **info** dc convergence successful at Newton-Raphson method 

   *** parameter k =    3.300E-06 ***

 ******
 2-input xor (loading c=0.01p)

 ****** transient analysis tnom=  25.000 temp=  25.000 ******
 delayn=  67.4700p  targ=  10.0725n   trig=  10.0050n
 pw=  32.9393u  from=   0.             to=  50.0000n
 pdp=   2.2224f

          ***** job concluded
 **info** dc convergence successful at Newton-Raphson method 

   *** parameter k =    3.400E-06 ***

 ******
 2-input xor (loading c=0.01p)

 ****** transient analysis tnom=  25.000 temp=  25.000 ******
 delayn=  67.0779p  targ=  10.0721n   trig=  10.0050n
 pw=  33.8386u  from=   0.             to=  50.0000n
 pdp=   2.2698f

          ***** job concluded
 **info** dc convergence successful at Newton-Raphson method 

   *** parameter k =    3.500E-06 ***

 ******
 2-input xor (loading c=0.01p)

 ****** transient analysis tnom=  25.000 temp=  25.000 ******
 delayn=  66.7065p  targ=  10.0717n   trig=  10.0050n
 pw=  34.7468u  from=   0.             to=  50.0000n
 pdp=   2.3178f

          ***** job concluded
 **info** dc convergence successful at Newton-Raphson method 

   *** parameter k =    3.600E-06 ***

 ******
 2-input xor (loading c=0.01p)

 ****** transient analysis tnom=  25.000 temp=  25.000 ******
 delayn=  66.3539p  targ=  10.0714n   trig=  10.0050n
 pw=  35.5981u  from=   0.             to=  50.0000n
 pdp=   2.3621f

          ***** job concluded
 **info** dc convergence successful at Newton-Raphson method 

   *** parameter k =    3.700E-06 ***

 ******
 2-input xor (loading c=0.01p)

 ****** transient analysis tnom=  25.000 temp=  25.000 ******
 delayn=  66.0187p  targ=  10.0710n   trig=  10.0050n
 pw=  36.5052u  from=   0.             to=  50.0000n
 pdp=   2.4100f

          ***** job concluded
 **info** dc convergence successful at Newton-Raphson method 

   *** parameter k =    3.800E-06 ***

 ******
 2-input xor (loading c=0.01p)

 ****** transient analysis tnom=  25.000 temp=  25.000 ******
 delayn=  65.6995p  targ=  10.0707n   trig=  10.0050n
 pw=  37.4124u  from=   0.             to=  50.0000n
 pdp=   2.4580f

          ***** job concluded
 **info** dc convergence successful at Newton-Raphson method 

   *** parameter k =    3.900E-06 ***

 ******
 2-input xor (loading c=0.01p)

 ****** transient analysis tnom=  25.000 temp=  25.000 ******
 delayn=  65.3951p  targ=  10.0704n   trig=  10.0050n
 pw=  38.3197u  from=   0.             to=  50.0000n
 pdp=   2.5059f

          ***** job concluded
 **info** dc convergence successful at Newton-Raphson method 

   *** parameter k =    4.000E-06 ***

 ******
 2-input xor (loading c=0.01p)

 ****** transient analysis tnom=  25.000 temp=  25.000 ******
 delayn=  65.1043p  targ=  10.0701n   trig=  10.0050n
 pw=  39.2270u  from=   0.             to=  50.0000n
 pdp=   2.5538f

          ***** job concluded
 **info** dc convergence successful at Newton-Raphson method 

   *** parameter k =    4.100E-06 ***

 ******
 2-input xor (loading c=0.01p)

 ****** transient analysis tnom=  25.000 temp=  25.000 ******
 delayn=  64.8264p  targ=  10.0698n   trig=  10.0050n
 pw=  40.1343u  from=   0.             to=  50.0000n
 pdp=   2.6018f

          ***** job concluded
 **info** dc convergence successful at Newton-Raphson method 

   *** parameter k =    4.200E-06 ***

 ******
 2-input xor (loading c=0.01p)

 ****** transient analysis tnom=  25.000 temp=  25.000 ******
 delayn=  64.5604p  targ=  10.0696n   trig=  10.0050n
 pw=  41.0418u  from=   0.             to=  50.0000n
 pdp=   2.6497f

          ***** job concluded
 **info** dc convergence successful at Newton-Raphson method 

   *** parameter k =    4.300E-06 ***

 ******
 2-input xor (loading c=0.01p)

 ****** transient analysis tnom=  25.000 temp=  25.000 ******
 delayn=  64.3054p  targ=  10.0693n   trig=  10.0050n
 pw=  41.9495u  from=   0.             to=  50.0000n
 pdp=   2.6976f

          ***** job concluded
 **info** dc convergence successful at Newton-Raphson method 

   *** parameter k =    4.400E-06 ***

 ******
 2-input xor (loading c=0.01p)

 ****** transient analysis tnom=  25.000 temp=  25.000 ******
 delayn=  64.0608p  targ=  10.0691n   trig=  10.0050n
 pw=  42.8571u  from=   0.             to=  50.0000n
 pdp=   2.7455f

          ***** job concluded
 **info** dc convergence successful at Newton-Raphson method 

   *** parameter k =    4.500E-06 ***

 ******
 2-input xor (loading c=0.01p)

 ****** transient analysis tnom=  25.000 temp=  25.000 ******
 delayn=  63.8259p  targ=  10.0688n   trig=  10.0050n
 pw=  43.7648u  from=   0.             to=  50.0000n
 pdp=   2.7933f

          ***** job concluded
 **info** dc convergence successful at Newton-Raphson method 

   *** parameter k =    4.600E-06 ***

 ******
 2-input xor (loading c=0.01p)

 ****** transient analysis tnom=  25.000 temp=  25.000 ******
 delayn=  63.6001p  targ=  10.0686n   trig=  10.0050n
 pw=  44.6726u  from=   0.             to=  50.0000n
 pdp=   2.8412f

          ***** job concluded
 **info** dc convergence successful at Newton-Raphson method 

   *** parameter k =    4.700E-06 ***

 ******
 2-input xor (loading c=0.01p)

 ****** transient analysis tnom=  25.000 temp=  25.000 ******
 delayn=  63.3828p  targ=  10.0684n   trig=  10.0050n
 pw=  45.5804u  from=   0.             to=  50.0000n
 pdp=   2.8890f

          ***** job concluded
 **info** dc convergence successful at Newton-Raphson method 

   *** parameter k =    4.800E-06 ***

 ******
 2-input xor (loading c=0.01p)

 ****** transient analysis tnom=  25.000 temp=  25.000 ******
 delayn=  63.1735p  targ=  10.0682n   trig=  10.0050n
 pw=  46.4883u  from=   0.             to=  50.0000n
 pdp=   2.9368f

          ***** job concluded
 **info** dc convergence successful at Newton-Raphson method 

   *** parameter k =    4.900E-06 ***

 ******
 2-input xor (loading c=0.01p)

 ****** transient analysis tnom=  25.000 temp=  25.000 ******
 delayn=  62.9718p  targ=  10.0680n   trig=  10.0050n
 pw=  47.3962u  from=   0.             to=  50.0000n
 pdp=   2.9846f

          ***** job concluded
 **info** dc convergence successful at Newton-Raphson method 

   *** parameter k =    5.000E-06 ***

 ******
 2-input xor (loading c=0.01p)

 ****** transient analysis tnom=  25.000 temp=  25.000 ******
 delayn=  62.7772p  targ=  10.0678n   trig=  10.0050n
 pw=  48.3042u  from=   0.             to=  50.0000n
 pdp=   3.0324f

          ***** job concluded
 ******  
 2-input xor (loading c=0.01p)

 ****** job statistics summary tnom=  25.000 temp=  25.000 ******
  
  
 ******  Machine Information  ******
 CPU:
 model name	: Intel(R) Core(TM) i7-10870H CPU @ 2.20GHz
 cpu MHz	: 2207.478
  
 OS:
 Linux version 3.10.0-693.el7.x86_64 (builder@kbuilder.dev.centos.org) (gcc version 4.8.5 20150623 (Red Hat 4.8.5-16) (GCC) ) #1 SMP Tue Aug 22 21:09:27 UTC 2017


  ******  HSPICE Threads Information  ******

  Command Line Threads Count :     1
  Available CPU Count        :     2
  Actual Threads Count       :     1


  ****** Statistics of Ignored Elements ******
  Voltage Sources :       1

  ******  Circuit Statistics  ******
  # nodes       =      36 # elements   =      18
  # resistors   =       1 # capacitors =       1 # inductors   =       0
  # mutual_inds =       0 # vccs       =       0 # vcvs        =       0
  # cccs        =       0 # ccvs       =       0 # volt_srcs   =       4
  # curr_srcs   =       0 # diodes     =       0 # bjts        =       0
  # jfets       =       0 # mosfets    =      12 # U elements  =       0
  # T elements  =       0 # W elements =       0 # B elements  =       0
  # S elements  =       0 # P elements =       0 # va device   =       0
  # vector_srcs =       0 # N elements =       0


  ******  Runtime Statistics (seconds)  ******

  analysis           time    # points   tot. iter  conv.iter
  op point           0.05           1        1126
  transient          1.40       24048       45617       17204 rev=      1282
  readin             0.01
  errchk             0.01
  setup              0.00
  output             0.00


           peak memory used        310.90 megabytes
           total cpu time            1.48 seconds
           total elapsed time        0.84 seconds
           job started at     19:28:38 03/09/2024
           job ended   at     19:28:39 03/09/2024


 lic: Release hspice token(s) 
 lic: total license checkout elapse time:        0.01(s)
