 ****** HSPICE -- N-2017.12 linux64 (Nov 21 2017) ******                        
  Copyright (c) 1986 - 2024 by Synopsys, Inc. All Rights Reserved.              
  This software and the associated documentation are proprietary
  to Synopsys, Inc. This software may only be used in accordance
  with the terms and conditions of a written license agreement with
  Synopsys, Inc. All other use, reproduction, or distribution of
  this software is strictly prohibited.
  Input File: p5.sp                                                             
  Command line options: /eda/synopsys/hspice/2017.12/hspice/linux64/hspice -i p5.sp -o p5
 lic:  
 lic: FLEXlm: SDK_11.6.8.3 
 lic: USER:   user                 HOSTNAME: centos 
 lic: HOSTID: 00505631ddcc         PID:      3366 
 lic: Using FLEXlm license file: 
 lic: 27000@centos 
 lic: Checkout 1 hspice 
 lic: License/Maintenance for hspice will expire on 30-dec-2101/2100.2100 
 lic: 1(in_use)/99(total) FLOATING license(s) on SERVER 27000@centos 
 lic:   
  **warning** (p5.sp:10) Global net name, "vdd", in subckt pin list. The pin will be connected to the local net. Recommend to not use global net names in subckt pin lists.
1****** HSPICE -- N-2017.12 linux64 (Nov 21 2017) ******                        
 ******  
 pratice5 from lab6-1 1-bit full adder (loading c=1p)

 ****** circuit name directory
 circuit number to circuit name directory
   number circuitname                     definition         multiplier
        0 main circuit
        1 xadder.                         fulladder          1.00 
        2 xadder.xinvc1.                  inv                1.00 
        3 xadder.xinvc2.                  inv                1.00 
        4 xadder.xinvc3.                  inv                1.00 
        5 xadder.xinvs.                   inv                1.00 
  **info** (p5.sp:55) DC voltage reset to initial transient source value in source 0:va. new dc=0.1800D+01
  **warning** (p5.sp:8) Both nodes of element vgnd are connected together; Line ignored.
 

  

  **warning** the following singular supplies were terminated to 1 meg resistor 
          supply       node1            node2
(p5.sp:58)vclk                    0:clk              defined in subckt 0                     0:0                defined in subckt 0               
             
 Warning:'No DC path nodes' occurs 1 times
 No DC path from the following nodes,connected with gdcpath:
 -----------------------
 |Node      |Subckt    |
 |----------+----------|
 |xadder.clk|fulladder |
 -----------------------
              
      
 **info** set option symb=1 internally to help for convergence.
 *****************************************************************
 ******  option summary
 ******
 runlvl  = 3         bypass  = 2.0000    
  Opening plot unit= 15
 file=p5.pa0

 **info** dc convergence successful at Newton-Raphson method 
 ******  
 pratice5 from lab6-1 1-bit full adder (loading c=1p)

 ****** operating point information tnom=  25.000 temp=  25.000 ******
 ****** operating point status is voltage   simulation time is     0.     
    node    =voltage      node    =voltage      node    =voltage

 +0:a       =   1.8000  0:b       =   1.8000  0:cin     =   1.8000 
 +0:clk     =   0.      0:cout    =  24.6556n 0:sum     =   1.8000 
 +0:vdd     =   1.8000  1:clk     =   0.      1:cout1   =  24.6556n
 +1:cout2   =   1.8000  1:n3      =   0.      1:n4      =   0.     
 +1:n5      =   0.      1:n6      =   0.      1:n7      =   0.     
 +1:net2    =   1.5666  1:net3    =   1.5743  1:net4    =   1.5549 
 +1:netc0   =   1.8000 

 ******
 pratice5 from lab6-1 1-bit full adder (loading c=1p)

 ****** transient analysis tnom=  25.000 temp=  25.000 ******
  **warning** (p5.sp:60) .MEASURE  delayn1 never reached the target value, Measurement failed! 
   delayn1= failed       targ= not found    trig=   21.2500n
   delayn2= failed       targ= not found    trig=   51.6500n
   delayn3= failed       targ= not found    trig=   41.2500n
 pw=   1.6961u  from=   0.             to= 320.0000n

          ***** job concluded
 ******  
 pratice5 from lab6-1 1-bit full adder (loading c=1p)

 ****** job statistics summary tnom=  25.000 temp=  25.000 ******
  
  
 ******  Machine Information  ******
 CPU:
 model name	: Intel(R) Core(TM) i7-10870H CPU @ 2.20GHz
 cpu MHz	: 2207.217
  
 OS:
 Linux version 3.10.0-693.el7.x86_64 (builder@kbuilder.dev.centos.org) (gcc version 4.8.5 20150623 (Red Hat 4.8.5-16) (GCC) ) #1 SMP Tue Aug 22 21:09:27 UTC 2017


  ******  HSPICE Threads Information  ******

  Command Line Threads Count :     1
  Available CPU Count        :     2
  Actual Threads Count       :     1


  ****** Statistics of Ignored Elements ******
  Voltage Sources :       1

  ******  Circuit Statistics  ******
  # nodes       =      68 # elements   =      32
  # resistors   =       1 # capacitors =       2 # inductors   =       0
  # mutual_inds =       0 # vccs       =       0 # vcvs        =       0
  # cccs        =       0 # ccvs       =       0 # volt_srcs   =       5
  # curr_srcs   =       0 # diodes     =       0 # bjts        =       0
  # jfets       =       0 # mosfets    =      24 # U elements  =       0
  # T elements  =       0 # W elements =       0 # B elements  =       0
  # S elements  =       0 # P elements =       0 # va device   =       0
  # vector_srcs =       0 # N elements =       0


  ******  Runtime Statistics (seconds)  ******

  analysis           time    # points   tot. iter  conv.iter
  op point           0.00           1          37
  transient          0.05        3201        1239         554 rev=        49
  readin             0.06
  errchk             0.01
  setup              0.00
  output             0.00


           peak memory used        290.91 megabytes
           total cpu time            0.12 seconds
           total elapsed time        0.20 seconds
           job started at     09:28:20 05/06/2024
           job ended   at     09:28:20 05/06/2024


 lic: Release hspice token(s) 
 lic: total license checkout elapse time:        0.06(s)
