 ****** HSPICE -- N-2017.12 linux64 (Nov 21 2017) ******                        
  Copyright (c) 1986 - 2024 by Synopsys, Inc. All Rights Reserved.              
  This software and the associated documentation are proprietary
  to Synopsys, Inc. This software may only be used in accordance
  with the terms and conditions of a written license agreement with
  Synopsys, Inc. All other use, reproduction, or distribution of
  this software is strictly prohibited.
  Input File: full.sp                                                           
  Command line options: /eda/synopsys/hspice/2017.12/hspice/linux64/hspice -i full.sp -o full
 lic:  
 lic: FLEXlm: SDK_11.6.8.3 
 lic: USER:   user                 HOSTNAME: centos 
 lic: HOSTID: 00505631ddcc         PID:      11011 
 lic: Using FLEXlm license file: 
 lic: 27000@centos 
 lic: Checkout 1 hspice 
 lic: License/Maintenance for hspice will expire on 30-dec-2101/2100.2100 
 lic: 1(in_use)/99(total) FLOATING license(s) on SERVER 27000@centos 
 lic:   
  **warning** (full.sp:10) Global net name, "vdd", in subckt pin list. The pin will be connected to the local net. Recommend to not use global net names in subckt pin lists.
1****** HSPICE -- N-2017.12 linux64 (Nov 21 2017) ******                        
 ******  
 lab6-1-b 8-bit full adder (loading c=0.1p)

 ****** circuit name directory
 circuit number to circuit name directory
   number circuitname                     definition         multiplier
        0 main circuit
        1 x0.                             fulladder          1.00 
        2 x1.                             fulladder          1.00 
        3 x2.                             fulladder          1.00 
        4 x3.                             fulladder          1.00 
        5 x4.                             fulladder          1.00 
        6 x5.                             fulladder          1.00 
        7 x6.                             fulladder          1.00 
        8 x7.                             fulladder          1.00 
        9 x0.xinvc.                       inv                1.00 
       10 x0.xinvs.                       inv                1.00 
       11 x1.xinvc.                       inv                1.00 
       12 x1.xinvs.                       inv                1.00 
       13 x2.xinvc.                       inv                1.00 
       14 x2.xinvs.                       inv                1.00 
       15 x3.xinvc.                       inv                1.00 
       16 x3.xinvs.                       inv                1.00 
       17 x4.xinvc.                       inv                1.00 
       18 x4.xinvs.                       inv                1.00 
       19 x5.xinvc.                       inv                1.00 
       20 x5.xinvs.                       inv                1.00 
       21 x6.xinvc.                       inv                1.00 
       22 x6.xinvs.                       inv                1.00 
       23 x7.xinvc.                       inv                1.00 
       24 x7.xinvs.                       inv                1.00 
  **info** (full.sp:87) DC voltage reset to initial transient source value in source 0:vc. new dc=0.1800D+01
  **warning** (full.sp:8) Both nodes of element vgnd are connected together; Line ignored.
 

  
      
 **info** set option symb=1 internally to help for convergence.
 *****************************************************************
 ******  option summary
 ******
 runlvl  = 3         bypass  = 2.0000    
  Opening plot unit= 15
 file=full.pa0

 **info** dc convergence successful at Newton-Raphson method 
 ******  
 lab6-1-b 8-bit full adder (loading c=0.1p)

 ****** operating point information tnom=  25.000 temp=  25.000 ******
 ****** operating point status is voltage   simulation time is     0.     
     node    =voltage       node    =voltage       node    =voltage

 + 0:a0      =   1.8000   0:a1      =   1.8000   0:a2      =   1.8000 
 + 0:a3      =   1.8000   0:a4      =   1.8000   0:a5      =   1.8000 
 + 0:a6      =   1.8000   0:a7      =   1.8000   0:b0      =   0.     
 + 0:b1      =   0.       0:b2      =   0.       0:b3      =   0.     
 + 0:b4      =   0.       0:b5      =   0.       0:b6      =   0.     
 + 0:b7      =   0.       0:c0      =   1.8000   0:c1      =   1.8000 
 + 0:c2      =   1.8000   0:c3      =   1.8000   0:c4      =   1.8000 
 + 0:c5      =   1.8000   0:c6      =   1.8000   0:c7      =   1.8000 
 + 0:cin     =   1.8000   0:sum0    =   8.1115n  0:sum1    =   8.1115n
 + 0:sum2    =   8.1115n  0:sum3    =   8.1115n  0:sum4    =   8.1115n
 + 0:sum5    =   8.1115n  0:sum6    =   8.1115n  0:sum7    =   8.1115n
 + 0:vdd     =   1.8000   1:n0      =   1.8000   1:n1      =   1.8000 
 + 1:n2      =   1.8000   1:n3      =   1.8000   1:n4      =   3.5097n
 + 1:n5      =   1.5604   1:n6      =   1.5397   1:net0    =   1.8000 
 + 1:net1    =   1.8000   1:net2    =  16.1527n  1:net3    =  32.3055n
 + 1:netc0   =  32.3055n  2:n0      =   1.8000   2:n1      =   1.8000 
 + 2:n2      =   1.8000   2:n3      =   1.8000   2:n4      =   3.5097n
 + 2:n5      =   1.5604   2:n6      =   1.5397   2:net0    =   1.8000 
 + 2:net1    =   1.8000   2:net2    =  16.1527n  2:net3    =  32.3055n
 + 2:netc0   =  32.3055n  3:n0      =   1.8000   3:n1      =   1.8000 
 + 3:n2      =   1.8000   3:n3      =   1.8000   3:n4      =   3.5097n
 + 3:n5      =   1.5604   3:n6      =   1.5397   3:net0    =   1.8000 
 + 3:net1    =   1.8000   3:net2    =  16.1527n  3:net3    =  32.3055n
 + 3:netc0   =  32.3055n  4:n0      =   1.8000   4:n1      =   1.8000 
 + 4:n2      =   1.8000   4:n3      =   1.8000   4:n4      =   3.5097n
 + 4:n5      =   1.5604   4:n6      =   1.5397   4:net0    =   1.8000 
 + 4:net1    =   1.8000   4:net2    =  16.1527n  4:net3    =  32.3055n
 + 4:netc0   =  32.3055n  5:n0      =   1.8000   5:n1      =   1.8000 
 + 5:n2      =   1.8000   5:n3      =   1.8000   5:n4      =   3.5097n
 + 5:n5      =   1.5604   5:n6      =   1.5397   5:net0    =   1.8000 
 + 5:net1    =   1.8000   5:net2    =  16.1527n  5:net3    =  32.3055n
 + 5:netc0   =  32.3055n  6:n0      =   1.8000   6:n1      =   1.8000 
 + 6:n2      =   1.8000   6:n3      =   1.8000   6:n4      =   3.5097n
 + 6:n5      =   1.5604   6:n6      =   1.5397   6:net0    =   1.8000 
 + 6:net1    =   1.8000   6:net2    =  16.1527n  6:net3    =  32.3055n
 + 6:netc0   =  32.3055n  7:n0      =   1.8000   7:n1      =   1.8000 
 + 7:n2      =   1.8000   7:n3      =   1.8000   7:n4      =   3.5097n
 + 7:n5      =   1.5604   7:n6      =   1.5397   7:net0    =   1.8000 
 + 7:net1    =   1.8000   7:net2    =  16.1527n  7:net3    =  32.3055n
 + 7:netc0   =  32.3055n  8:n0      =   1.8000   8:n1      =   1.8000 
 + 8:n2      =   1.8000   8:n3      =   1.8000   8:n4      =   3.5097n
 + 8:n5      =   1.5604   8:n6      =   1.5397   8:net0    =   1.8000 
 + 8:net1    =   1.8000   8:net2    =  16.1527n  8:net3    =  32.3055n
 + 8:netc0   =  32.3055n

 ******
 lab6-1-b 8-bit full adder (loading c=0.1p)

 ****** transient analysis tnom=  25.000 temp=  25.000 ******
 delayr=   1.3140n  targ=  32.3640n   trig=  31.0500n
 delayf=   1.3611n  targ=  42.4111n   trig=  41.0500n
 delaysf=   1.3774n  targ=  32.4274n   trig=  31.0500n
 delaysr=   1.4508n  targ=  42.5008n   trig=  41.0500n
 pw= 293.7352u  from=   0.             to= 400.0000n

          ***** job concluded
 ******  
 lab6-1-b 8-bit full adder (loading c=0.1p)

 ****** job statistics summary tnom=  25.000 temp=  25.000 ******
  
  
 ******  Machine Information  ******
 CPU:
 model name	: Intel(R) Core(TM) i7-10870H CPU @ 2.20GHz
 cpu MHz	: 2207.497
  
 OS:
 Linux version 3.10.0-693.el7.x86_64 (builder@kbuilder.dev.centos.org) (gcc version 4.8.5 20150623 (Red Hat 4.8.5-16) (GCC) ) #1 SMP Tue Aug 22 21:09:27 UTC 2017


  ******  HSPICE Threads Information  ******

  Command Line Threads Count :     1
  Available CPU Count        :     2
  Actual Threads Count       :     1


  ****** Statistics of Ignored Elements ******
  Voltage Sources :       1

  ******  Circuit Statistics  ******
  # nodes       =     579 # elements   =     251
  # resistors   =       0 # capacitors =       9 # inductors   =       0
  # mutual_inds =       0 # vccs       =       0 # vcvs        =       0
  # cccs        =       0 # ccvs       =       0 # volt_srcs   =      18
  # curr_srcs   =       0 # diodes     =       0 # bjts        =       0
  # jfets       =       0 # mosfets    =     224 # U elements  =       0
  # T elements  =       0 # W elements =       0 # B elements  =       0
  # S elements  =       0 # P elements =       0 # va device   =       0
  # vector_srcs =       0 # N elements =       0


  ******  Runtime Statistics (seconds)  ******

  analysis           time    # points   tot. iter  conv.iter
  op point           0.01           1          20
  transient          2.01        8001        9689        2959 rev=        24
  readin             0.01
  errchk             0.01
  setup              0.00
  output             0.00


           peak memory used        312.07 megabytes
           total cpu time            2.05 seconds
           total elapsed time        1.53 seconds
           job started at     00:51:42 04/14/2024
           job ended   at     00:51:44 04/14/2024


 lic: Release hspice token(s) 
 lic: total license checkout elapse time:        0.02(s)
