 ****** HSPICE -- N-2017.12 linux64 (Nov 21 2017) ******                        
  Copyright (c) 1986 - 2024 by Synopsys, Inc. All Rights Reserved.              
  This software and the associated documentation are proprietary
  to Synopsys, Inc. This software may only be used in accordance
  with the terms and conditions of a written license agreement with
  Synopsys, Inc. All other use, reproduction, or distribution of
  this software is strictly prohibited.
  Input File: p10.sp                                                            
  Command line options: /eda/synopsys/hspice/2017.12/hspice/linux64/hspice -i p10.sp -o p10
 lic:  
 lic: FLEXlm: SDK_11.6.8.3 
 lic: USER:   user                 HOSTNAME: centos 
 lic: HOSTID: 00505631ddcc         PID:      5262 
 lic: Using FLEXlm license file: 
 lic: 27000@centos 
 lic: Checkout 1 hspice 
 lic: License/Maintenance for hspice will expire on 30-dec-2101/2100.2100 
 lic: 1(in_use)/99(total) FLOATING license(s) on SERVER 27000@centos 
 lic:   
  **warning** (p10.sp:8) Global net name, "vdd", in subckt pin list. The pin will be connected to the local net. Recommend to not use global net names in subckt pin lists.
1****** HSPICE -- N-2017.12 linux64 (Nov 21 2017) ******                        
 ******  
 pratice10 pass_reansistor (loading c=2p)

 ****** circuit name directory
 circuit number to circuit name directory
   number circuitname                     definition         multiplier
        0 main circuit
        1 x1.                             multiplexer        1.00 
        2 xbuffer1.                       inv                1.00 
        3 xbuffer2.                       inv                1.00 
        4 xbuffer3.                       inv                1.00 
        5 xbuffer4.                       inv                1.00 
        6 x1.xinvs.                       inv                1.00 
        7 x1.x1.                          or                 1.00 
        8 x1.x2.                          and                1.00 
        9 x1.x1.xinvb.                    inv                1.00 
       10 x1.x2.xinvb.                    inv                1.00 
  **info** (p10.sp:51) DC voltage reset to initial transient source value in source 0:va. new dc=0.1800D+01
  **warning** (p10.sp:48) Both nodes of element vgnd are connected together; Line ignored.
 

  
      
 **info** set option symb=1 internally to help for convergence.
 *****************************************************************
 ******  option summary
 ******
 runlvl  = 3         bypass  = 2.0000    
  Opening plot unit= 15
 file=p10.pa0

 **info** dc convergence successful at Newton-Raphson method 
 ******  
 pratice10 pass_reansistor (loading c=2p)

 ****** operating point information tnom=  25.000 temp=  25.000 ******
 ****** operating point status is voltage   simulation time is     0.     
     node    =voltage       node    =voltage       node    =voltage

 + 0:a       =   1.8000   0:b       =   1.8000   0:out     =   1.8000 
 + 0:out1    =   1.5610   0:out2    =   6.3698u  0:out3    =   1.8000 
 + 0:out4    =  12.3534n  0:s       =   1.8000   0:vdd     =   1.8000 
 + 1:n1      =   1.6419   1:n2      =   1.5625   1:sout    =  12.3534n
 + 7:bout    =  15.2634n  8:bout    =  10.0408n

 ******
 pratice10 pass_reansistor (loading c=2p)

 ****** transient analysis tnom=  25.000 temp=  25.000 ******
 delay00=   1.0362n  targ=   2.2862n   trig=   1.2500n
 delay10= 983.9303p  targ=  52.2339n   trig=  51.2500n
 delay00_1= 984.8988p  targ= 202.2349n   trig= 201.2500n
 delay11= 977.1787p  targ= 352.2272n   trig= 351.2500n

          ***** job concluded
 ******  
 pratice10 pass_reansistor (loading c=2p)

 ****** job statistics summary tnom=  25.000 temp=  25.000 ******
  
  
 ******  Machine Information  ******
 CPU:
 model name	: Intel(R) Core(TM) i7-10870H CPU @ 2.20GHz
 cpu MHz	: 2207.285
  
 OS:
 Linux version 3.10.0-693.el7.x86_64 (builder@kbuilder.dev.centos.org) (gcc version 4.8.5 20150623 (Red Hat 4.8.5-16) (GCC) ) #1 SMP Tue Aug 22 21:09:27 UTC 2017


  ******  HSPICE Threads Information  ******

  Command Line Threads Count :     1
  Available CPU Count        :     2
  Actual Threads Count       :     1


  ****** Statistics of Ignored Elements ******
  Voltage Sources :       1

  ******  Circuit Statistics  ******
  # nodes       =      55 # elements   =      25
  # resistors   =       0 # capacitors =       1 # inductors   =       0
  # mutual_inds =       0 # vccs       =       0 # vcvs        =       0
  # cccs        =       0 # ccvs       =       0 # volt_srcs   =       4
  # curr_srcs   =       0 # diodes     =       0 # bjts        =       0
  # jfets       =       0 # mosfets    =      20 # U elements  =       0
  # T elements  =       0 # W elements =       0 # B elements  =       0
  # S elements  =       0 # P elements =       0 # va device   =       0
  # vector_srcs =       0 # N elements =       0


  ******  Runtime Statistics (seconds)  ******

  analysis           time    # points   tot. iter  conv.iter
  op point           0.01           1          25
  transient          0.02        4001         671         231 rev=        12
  readin             0.01
  errchk             0.00
  setup              0.00
  output             0.00


           peak memory used        290.91 megabytes
           total cpu time            0.05 seconds
           total elapsed time        0.05 seconds
           job started at     02:36:27 05/07/2024
           job ended   at     02:36:27 05/07/2024


 lic: Release hspice token(s) 
 lic: total license checkout elapse time:        0.02(s)
