$DATA1 SOURCE='HSPICE' VERSION='J-2014.09-2'
.TITLE '2-input AND'
 delayn1 delayn2 delayn3 delayn4 pw pdp temper  alter#
  5.1304e-010	  5.1304e-010	  5.1280e-010	  4.6615e-010	  2.5722e-004	  1.3196e-013	
     25.000000 1
