$DATA1 SOURCE='HSPICE' VERSION='J-2014.09-2 64-BIT'
.TITLE 'pass-transistor 3-input xor'
 delayn1          pw               pdp              temper          
 alter#          
  3.635e-10        6.918e-05        2.515e-14         25.0000       
 1               
