$DATA1 SOURCE='HSPICE' VERSION='J-2014.09-2 64-BIT'
.TITLE '4-input xor'
 k                delayn1          pw               pdp             
                  temper           alter#          
  3.000e-07        1.051e-08        1.039e-05        1.091e-13      
                    25.0000        1               
  4.000e-07        1.044e-08        1.290e-05        1.347e-13      
                    25.0000        1               
  5.000e-07        1.040e-08        1.542e-05        1.604e-13      
                    25.0000        1               
  6.000e-07        1.037e-08        1.791e-05        1.857e-13      
                    25.0000        1               
  7.000e-07        1.035e-08        2.040e-05        2.112e-13      
                    25.0000        1               
  8.000e-07        1.034e-08        2.289e-05        2.366e-13      
                    25.0000        1               
  9.000e-07        1.032e-08        2.541e-05        2.623e-13      
                    25.0000        1               
  1.000e-06        1.031e-08        2.793e-05        2.881e-13      
                    25.0000        1               
  1.100e-06        1.031e-08        3.045e-05        3.138e-13      
                    25.0000        1               
  1.200e-06        1.030e-08        3.295e-05        3.393e-13      
                    25.0000        1               
  1.300e-06        1.029e-08        3.548e-05        3.651e-13      
                    25.0000        1               
  1.400e-06        1.029e-08        3.799e-05        3.907e-13      
                    25.0000        1               
  1.500e-06        1.028e-08        4.052e-05        4.166e-13      
                    25.0000        1               
  1.600e-06        1.028e-08        4.303e-05        4.421e-13      
                    25.0000        1               
  1.700e-06        1.027e-08        4.555e-05        4.679e-13      
                    25.0000        1               
  1.800e-06        1.027e-08        4.809e-05        4.938e-13      
                    25.0000        1               
  1.900e-06        1.027e-08        5.061e-05        5.195e-13      
                    25.0000        1               
  2.000e-06        1.026e-08        5.315e-05        5.454e-13      
                    25.0000        1               
  2.100e-06        1.026e-08        5.569e-05        5.713e-13      
                    25.0000        1               
  2.200e-06        1.026e-08        5.820e-05        5.970e-13      
                    25.0000        1               
  2.300e-06        1.026e-08        6.072e-05        6.227e-13      
                    25.0000        1               
  2.400e-06        1.025e-08        6.319e-05        6.479e-13      
                    25.0000        1               
  2.500e-06        1.025e-08        6.582e-05        6.747e-13      
                    25.0000        1               
  2.600e-06        1.025e-08        6.832e-05        7.002e-13      
                    25.0000        1               
  2.700e-06        1.025e-08        7.085e-05        7.260e-13      
                    25.0000        1               
  2.800e-06        1.025e-08        7.335e-05        7.516e-13      
                    25.0000        1               
  2.900e-06        1.024e-08        7.588e-05        7.773e-13      
                    25.0000        1               
  3.000e-06        1.024e-08        7.843e-05        8.034e-13      
                    25.0000        1               
  3.100e-06        1.024e-08        8.091e-05        8.287e-13      
                    25.0000        1               
  3.200e-06        1.024e-08        8.345e-05        8.547e-13      
                    25.0000        1               
  3.300e-06        1.024e-08        8.599e-05        8.806e-13      
                    25.0000        1               
  3.400e-06        1.024e-08        8.862e-05        9.074e-13      
                    25.0000        1               
  3.500e-06        1.024e-08        9.110e-05        9.327e-13      
                    25.0000        1               
  3.600e-06        1.024e-08        9.364e-05        9.586e-13      
                    25.0000        1               
  3.700e-06        1.024e-08        9.621e-05        9.849e-13      
                    25.0000        1               
  3.800e-06        1.024e-08        9.880e-05        1.011e-12      
                    25.0000        1               
  3.900e-06        1.023e-08        1.013e-04        1.037e-12      
                    25.0000        1               
  4.000e-06        1.023e-08        1.038e-04        1.063e-12      
                    25.0000        1               
  4.100e-06        1.023e-08        1.064e-04        1.089e-12      
                    25.0000        1               
  4.200e-06        1.023e-08        1.089e-04        1.114e-12      
                    25.0000        1               
  4.300e-06        1.023e-08        1.113e-04        1.139e-12      
                    25.0000        1               
  4.400e-06        1.023e-08        1.139e-04        1.165e-12      
                    25.0000        1               
  4.500e-06        1.023e-08        1.166e-04        1.192e-12      
                    25.0000        1               
  4.600e-06        1.023e-08        1.190e-04        1.217e-12      
                    25.0000        1               
  4.700e-06        1.023e-08        1.216e-04        1.244e-12      
                    25.0000        1               
  4.800e-06        1.023e-08        1.242e-04        1.270e-12      
                    25.0000        1               
  4.900e-06        1.023e-08        1.268e-04        1.297e-12      
                    25.0000        1               
  5.000e-06        1.023e-08        1.293e-04        1.322e-12      
                    25.0000        1               
