$DATA1 SOURCE='HSPICE' VERSION='J-2014.09-2 64-BIT'
.TITLE '4-input nor'
 k                delayn1          pw               pdp             
                  temper           alter#          
  2.500e-07        1.827e-10        1.479e-06        2.702e-16      
                    25.0000        1               
  3.000e-07        1.748e-10        1.688e-06        2.950e-16      
                    25.0000        1               
  3.500e-07        1.690e-10        1.901e-06        3.214e-16      
                    25.0000        1               
  4.000e-07        1.656e-10        2.108e-06        3.492e-16      
                    25.0000        1               
  4.500e-07        1.642e-10        2.350e-06        3.859e-16      
                    25.0000        1               
  5.000e-07        1.628e-10        2.541e-06        4.136e-16      
                    25.0000        1               
  5.500e-07        1.612e-10        2.747e-06        4.430e-16      
                    25.0000        1               
  6.000e-07        1.580e-10        2.955e-06        4.669e-16      
                    25.0000        1               
  6.500e-07        1.567e-10        3.167e-06        4.962e-16      
                    25.0000        1               
  7.000e-07        1.559e-10        3.374e-06        5.260e-16      
                    25.0000        1               
  7.500e-07        1.550e-10        3.575e-06        5.543e-16      
                    25.0000        1               
  8.000e-07        1.543e-10        3.796e-06        5.857e-16      
                    25.0000        1               
  8.500e-07        1.536e-10        3.993e-06        6.133e-16      
                    25.0000        1               
  9.000e-07        1.529e-10        4.212e-06        6.442e-16      
                    25.0000        1               
  9.500e-07        1.524e-10        4.390e-06        6.688e-16      
                    25.0000        1               
  1.000e-06        1.518e-10        4.597e-06        6.978e-16      
                    25.0000        1               
  1.050e-06        1.532e-10        4.800e-06        7.355e-16      
                    25.0000        1               
  1.100e-06        1.517e-10        5.057e-06        7.670e-16      
                    25.0000        1               
  1.150e-06        1.521e-10        5.307e-06        8.069e-16      
                    25.0000        1               
  1.200e-06        1.523e-10        5.524e-06        8.412e-16      
                    25.0000        1               
  1.250e-06        1.523e-10        5.661e-06        8.619e-16      
                    25.0000        1               
  1.300e-06        1.520e-10        5.913e-06        8.987e-16      
                    25.0000        1               
  1.350e-06        1.516e-10        6.134e-06        9.301e-16      
                    25.0000        1               
  1.400e-06        1.513e-10        6.323e-06        9.569e-16      
                    25.0000        1               
  1.450e-06        1.510e-10        6.530e-06        9.862e-16      
                    25.0000        1               
  1.500e-06        1.507e-10        6.731e-06        1.014e-15      
                    25.0000        1               
  1.550e-06        1.505e-10        6.927e-06        1.042e-15      
                    25.0000        1               
  1.600e-06        1.502e-10        7.156e-06        1.075e-15      
                    25.0000        1               
  1.650e-06        1.499e-10        7.347e-06        1.101e-15      
                    25.0000        1               
  1.700e-06        1.497e-10        7.566e-06        1.132e-15      
                    25.0000        1               
  1.750e-06        1.494e-10        7.785e-06        1.163e-15      
                    25.0000        1               
  1.800e-06        1.492e-10        7.995e-06        1.193e-15      
                    25.0000        1               
  1.850e-06        1.489e-10        8.193e-06        1.220e-15      
                    25.0000        1               
  1.900e-06        1.487e-10        8.401e-06        1.249e-15      
                    25.0000        1               
  1.950e-06        1.496e-10        8.635e-06        1.291e-15      
                    25.0000        1               
  2.000e-06        1.494e-10        8.861e-06        1.324e-15      
                    25.0000        1               
  2.050e-06        1.492e-10        9.069e-06        1.353e-15      
                    25.0000        1               
  2.100e-06        1.490e-10        9.286e-06        1.383e-15      
                    25.0000        1               
  2.150e-06        1.487e-10        9.507e-06        1.414e-15      
                    25.0000        1               
  2.200e-06        1.485e-10        9.697e-06        1.440e-15      
                    25.0000        1               
  2.250e-06        1.483e-10        9.921e-06        1.471e-15      
                    25.0000        1               
  2.300e-06        1.481e-10        1.015e-05        1.503e-15      
                    25.0000        1               
  2.350e-06        1.479e-10        1.027e-05        1.519e-15      
                    25.0000        1               
  2.400e-06        1.478e-10        1.049e-05        1.550e-15      
                    25.0000        1               
  2.450e-06        1.476e-10        1.069e-05        1.579e-15      
                    25.0000        1               
  2.500e-06        1.475e-10        1.091e-05        1.609e-15      
                    25.0000        1               
