 ****** HSPICE -- J-2014.09-2 64-BIT (Oct 22 2014) win64 ******                 
  Copyright (C) 2014 Synopsys, Inc. All Rights Reserved.                        
  Unpublished-rights reserved under US copyright laws.
  This program is protected by law and is subject to the
  terms and conditions of the license agreement from Synopsys.
  Use of this program is your acceptance to be bound by the
  license agreement. HSPICE is the trademark of Synopsys, Inc.
  Input File: 2-input nor.sp                                                    
  Command line options: -i 2-input nor.sp -o 2-input nor.lis
  lic:  
  lic: FLEXlm: v10.9.8 
  lic: USER:   user                 HOSTNAME: LAPTOP-V0SVEGVF 
  lic: HOSTID: "e8f408ef740e 00ff95ffeb7e 005056c00001 005056c00008 e8f408ef740a
  e8f408ef740b eaf408e
  lic: Using FLEXlm license file: 
  lic: 27000@LAPTOP-V0SVEGVF 
  lic: Checkout 1 hspice 
  lic: License/Maintenance for hspice will expire on 30-dec-2030/2029.2029 
  lic: 1(in_use)/99(total) FLOATING license(s) on SERVER 27000@LAPTOP-V0SVEGVF 
  lic:   
 Init: read install configuration file: C:\synopsys\Hspice_J-2014.09-2\meta.cfg
  **warning** (2-input nor.sp:12) Global net name, "vdd", in subckt pin list. The pin will be connected to the local net. Recommend to not use global net names in subckt pin lists.
1****** HSPICE -- J-2014.09-2 64-BIT (Oct 22 2014) win64 ******                 
 ******  
 2-input nor

 ****** circuit name directory
 circuit number to circuit name directory
   number circuitname                     definition         multiplier
        0 main circuit
        1 xa1.                            nor                1.00 
        2 xa2.                            nor                1.00 
        3 xa3.                            nor                1.00 
        4 xa4.                            nor                1.00 
  **info** (2-input nor.sp:26) DC voltage reset to initial transient source value              in source        0:va                  new dc=  0.1800D+01
  **warning** (2-input nor.sp:9) Both nodes of element vgnd are connected together; Line ignored.
 

  
      
 **info** set option symb=1 internally to help for convergence.
 *****************************************************************
 ******  option summary
 ******
 runlvl  = 3         bypass  = 2         
  Opening plot unit= 79
 file=2-input nor.pa0

 **info** dc convergence successful at Newton-Raphson method 
1****** HSPICE -- J-2014.09-2 64-BIT (Oct 22 2014) win64 ******                 
 ******  
 2-input nor

 ****** operating point information tnom=  25.000 temp=  25.000 ******
 ****** operating point status is voltage   simulation time is     0.     
    node    =voltage      node    =voltage      node    =voltage

 +0:a       =   1.8000  0:b       =   0.      0:c       =   0.     
 +0:d       =   0.      0:e       =   0.      0:out1    =   5.4173n
 +0:out2    =   1.8000  0:out3    =   6.1253n 0:out4    =   1.8000 
 +0:vdd     =   1.8000  1:net     =   1.8000  2:net     =   1.8000 
 +3:net     = 406.4094m 4:net     =   1.8000 

 ******  
 2-input nor

 ****** transient analysis tnom=  25.000 temp=  25.000 ******
 delayn1=  26.2265p  targ=  30.1762n   trig=  30.1500n
 delayn2= 123.6167p  targ=  20.2736n   trig=  20.1500n
 delayn3= 155.5486p  targ=  30.3055n   trig=  30.1500n
 delayn4= 291.1051p  targ=  20.4411n   trig=  20.1500n
 pw=  10.7114u  from=   0.          to=  80.0000n
 pdp= 280.9237a

          ***** job concluded
1****** HSPICE -- J-2014.09-2 64-BIT (Oct 22 2014) win64 ******                 
 ******  
 2-input nor

 ****** job statistics summary tnom=  25.000 temp=  25.000 ******

  ******  HSPICE Threads Information  ******

  Command Line Threads Count :     1
  Available CPU Count        :     8
  Actual Threads Count       :     1


  ****** Statistics of Ignored Elements ******
  Voltage Sources :       1

  ******  Circuit Statistics  ******
  # nodes       =      47 # elements   =      23
  # resistors   =       0 # capacitors =       1 # inductors   =       0
  # mutual_inds =       0 # vccs       =       0 # vcvs        =       0
  # cccs        =       0 # ccvs       =       0 # volt_srcs   =       6
  # curr_srcs   =       0 # diodes     =       0 # bjts        =       0
  # jfets       =       0 # mosfets    =      16 # U elements  =       0
  # T elements  =       0 # W elements =       0 # B elements  =       0
  # S elements  =       0 # P elements =       0 # va device   =       0
  # vector_srcs =       0 # N elements =       0


  ******  Runtime Statistics (seconds)  ******

  analysis           time    # points   tot. iter  conv.iter
  op point           0.00           1          22
  transient          0.03         801         943         326 rev=        42
  readin             0.01
  errchk             0.00
  setup              0.00
  output             0.00


           peak memory used         44.21 megabytes
           total cpu time            0.05 seconds
           total elapsed time        0.09 seconds
           job started at     11:50:52 07/05/2023
           job ended   at     11:50:52 07/05/2023


  lic: Release hspice token(s) 
 lic: total license checkout elapse time:        0.04(s)
