$DATA1 SOURCE='HSPICE' VERSION='N-2017.12 linux64' PARAM_COUNT=1
.TITLE '2-input nor (loading c=0.01p)'
 k                delayn           pw               pdp             
                  temper           alter#          
  2.500e-07        1.124e-10        4.215e-06        4.737e-16      
                    25.0000        1               
  3.000e-07        1.003e-10        4.448e-06        4.459e-16      
                    25.0000        1               
  3.500e-07        9.149e-11        4.675e-06        4.277e-16      
                    25.0000        1               
  4.000e-07        8.436e-11        4.901e-06        4.134e-16      
                    25.0000        1               
  4.500e-07        7.822e-11        5.048e-06        3.949e-16      
                    25.0000        1               
  5.000e-07        7.372e-11        5.267e-06        3.883e-16      
                    25.0000        1               
  5.500e-07        7.032e-11        5.457e-06        3.837e-16      
                    25.0000        1               
  6.000e-07        6.741e-11        5.653e-06        3.811e-16      
                    25.0000        1               
  6.500e-07        6.486e-11        5.866e-06        3.804e-16      
                    25.0000        1               
  7.000e-07        6.257e-11        6.079e-06        3.803e-16      
                    25.0000        1               
  7.500e-07        6.034e-11        6.318e-06        3.812e-16      
                    25.0000        1               
  8.000e-07        5.859e-11        6.512e-06        3.816e-16      
                    25.0000        1               
  8.500e-07        5.671e-11        6.729e-06        3.816e-16      
                    25.0000        1               
  9.000e-07        5.523e-11        6.950e-06        3.839e-16      
                    25.0000        1               
  9.500e-07        5.412e-11        7.181e-06        3.887e-16      
                    25.0000        1               
  1.000e-06        5.312e-11        7.399e-06        3.930e-16      
                    25.0000        1               
  1.050e-06        5.220e-11        7.617e-06        3.976e-16      
                    25.0000        1               
  1.100e-06        5.136e-11        7.835e-06        4.024e-16      
                    25.0000        1               
  1.150e-06        5.058e-11        8.054e-06        4.074e-16      
                    25.0000        1               
  1.200e-06        4.986e-11        8.275e-06        4.126e-16      
                    25.0000        1               
  1.250e-06        4.918e-11        8.470e-06        4.166e-16      
                    25.0000        1               
  1.300e-06        4.854e-11        8.689e-06        4.217e-16      
                    25.0000        1               
  1.350e-06        4.792e-11        8.939e-06        4.284e-16      
                    25.0000        1               
  1.400e-06        4.734e-11        9.164e-06        4.338e-16      
                    25.0000        1               
  1.450e-06        4.679e-11        9.393e-06        4.395e-16      
                    25.0000        1               
  1.500e-06        4.626e-11        9.637e-06        4.458e-16      
                    25.0000        1               
  1.550e-06        4.576e-11        9.865e-06        4.514e-16      
                    25.0000        1               
  1.600e-06        4.527e-11        1.008e-05        4.562e-16      
                    25.0000        1               
  1.650e-06        4.480e-11        1.028e-05        4.606e-16      
                    25.0000        1               
  1.700e-06        4.435e-11        1.049e-05        4.654e-16      
                    25.0000        1               
  1.750e-06        4.392e-11        1.071e-05        4.702e-16      
                    25.0000        1               
  1.800e-06        4.350e-11        1.092e-05        4.751e-16      
                    25.0000        1               
  1.850e-06        4.309e-11        1.114e-05        4.800e-16      
                    25.0000        1               
  1.900e-06        4.270e-11        1.135e-05        4.848e-16      
                    25.0000        1               
  1.950e-06        4.232e-11        1.157e-05        4.897e-16      
                    25.0000        1               
  2.000e-06        4.197e-11        1.179e-05        4.948e-16      
                    25.0000        1               
  2.050e-06        4.174e-11        1.201e-05        5.012e-16      
                    25.0000        1               
  2.100e-06        4.151e-11        1.223e-05        5.075e-16      
                    25.0000        1               
  2.150e-06        4.130e-11        1.244e-05        5.139e-16      
                    25.0000        1               
  2.200e-06        4.109e-11        1.266e-05        5.203e-16      
                    25.0000        1               
  2.250e-06        4.090e-11        1.288e-05        5.267e-16      
                    25.0000        1               
  2.300e-06        4.071e-11        1.309e-05        5.331e-16      
                    25.0000        1               
  2.350e-06        4.054e-11        1.331e-05        5.396e-16      
                    25.0000        1               
  2.400e-06        4.037e-11        1.353e-05        5.460e-16      
                    25.0000        1               
  2.450e-06        4.020e-11        1.374e-05        5.525e-16      
                    25.0000        1               
  2.500e-06        4.005e-11        1.396e-05        5.590e-16      
                    25.0000        1               
