$DATA1 SOURCE='HSPICE' VERSION='J-2014.09-2 64-BIT'
.TITLE 'inverter'
 delayn1          pw               pdp              temper          
 alter#          
  4.273e-10          0.2681         1.146e-10         25.0000       
 1               
