 ****** HSPICE -- N-2017.12 linux64 (Nov 21 2017) ******                        
  Copyright (c) 1986 - 2024 by Synopsys, Inc. All Rights Reserved.              
  This software and the associated documentation are proprietary
  to Synopsys, Inc. This software may only be used in accordance
  with the terms and conditions of a written license agreement with
  Synopsys, Inc. All other use, reproduction, or distribution of
  this software is strictly prohibited.
  Input File: xor3.sp                                                           
  Command line options: /eda/synopsys/hspice/2017.12/hspice/linux64/hspice -i xor3.sp -o xor3
 lic:  
 lic: FLEXlm: SDK_11.6.8.3 
 lic: USER:   user                 HOSTNAME: centos 
 lic: HOSTID: 00505631ddcc         PID:      6028 
 lic: Using FLEXlm license file: 
 lic: 27000@centos 
 lic: Checkout 1 hspice 
 lic: License/Maintenance for hspice will expire on 30-dec-2101/2100.2100 
 lic: 1(in_use)/99(total) FLOATING license(s) on SERVER 27000@centos 
 lic:   
1****** HSPICE -- N-2017.12 linux64 (Nov 21 2017) ******                        
 ******  
 3-input xor static cmos (loading c=0.05p~0.5p)

 ****** circuit name directory
 circuit number to circuit name directory
   number circuitname                     definition         multiplier
        0 main circuit
        1 xxor3.                          xor                1.00 
        2 xxor3.xinva.                    inv                1.00 
        3 xxor3.xinvb.                    inv                1.00 
        4 xxor3.xinvc.                    inv                1.00 
  **info** (xor3.sp:59) DC voltage reset to initial transient source value in source 0:va. new dc=0.1800D+01
  **warning** (xor3.sp:57) Both nodes of element vgnd are connected together; Line ignored.
 

  
      
 **info** set option symb=1 internally to help for convergence.
 *****************************************************************
 ******  option summary
 ******
 runlvl  = 3         bypass  = 2.0000    
  Opening plot unit= 15
 file=xor3.pa0

 **info** dc convergence successful at Newton-Raphson method 

   *** parameter k =    5.000E-14 ***

 ******
 3-input xor static cmos (loading c=0.05p~0.5p)

 ****** transient analysis tnom=  25.000 temp=  25.000 ******
 delayn= 354.8670p  targ=  40.5049n   trig=  40.1500n
 pw=   8.1271u  from=   0.             to= 640.0000n
 pdp=   2.8840f

          ***** job concluded
 ******
 3-input xor static cmos (loading c=0.05p~0.5p)

 ****** transient analysis tnom=  25.000 temp=  25.000 ******
  *** parameter k =   100.0000f       ***
  
 delayn= 441.7758p  targ=  40.5918n   trig=  40.1500n
 pw=   9.6322u  from=   0.             to= 640.0000n
 pdp=   4.2553f

          ***** job concluded
 ******
 3-input xor static cmos (loading c=0.05p~0.5p)

 ****** transient analysis tnom=  25.000 temp=  25.000 ******
  *** parameter k =   150.0000f       ***
  
 delayn= 539.4975p  targ=  40.6895n   trig=  40.1500n
 pw=  11.1412u  from=   0.             to= 640.0000n
 pdp=   6.0106f

          ***** job concluded
 ******
 3-input xor static cmos (loading c=0.05p~0.5p)

 ****** transient analysis tnom=  25.000 temp=  25.000 ******
  *** parameter k =   200.0000f       ***
  
 delayn= 623.7207p  targ=  40.7737n   trig=  40.1500n
 pw=  12.6484u  from=   0.             to= 640.0000n
 pdp=   7.8890f

          ***** job concluded
 ******
 3-input xor static cmos (loading c=0.05p~0.5p)

 ****** transient analysis tnom=  25.000 temp=  25.000 ******
  *** parameter k =   250.0000f       ***
  
 delayn= 711.1175p  targ=  40.8611n   trig=  40.1500n
 pw=  14.1984u  from=   0.             to= 640.0000n
 pdp=  10.0967f

          ***** job concluded
 ******
 3-input xor static cmos (loading c=0.05p~0.5p)

 ****** transient analysis tnom=  25.000 temp=  25.000 ******
  *** parameter k =   300.0000f       ***
  
 delayn= 797.4504p  targ=  40.9475n   trig=  40.1500n
 pw=  15.7087u  from=   0.             to= 640.0000n
 pdp=  12.5269f

          ***** job concluded
 ******
 3-input xor static cmos (loading c=0.05p~0.5p)

 ****** transient analysis tnom=  25.000 temp=  25.000 ******
  *** parameter k =   350.0000f       ***
  
 delayn= 893.8989p  targ=  41.0439n   trig=  40.1500n
 pw=  17.3169u  from=   0.             to= 640.0000n
 pdp=  15.4796f

          ***** job concluded
 ******
 3-input xor static cmos (loading c=0.05p~0.5p)

 ****** transient analysis tnom=  25.000 temp=  25.000 ******
  *** parameter k =   400.0000f       ***
  
 delayn= 975.9767p  targ=  41.1260n   trig=  40.1500n
 pw=  18.8276u  from=   0.             to= 640.0000n
 pdp=  18.3753f

          ***** job concluded
 ******
 3-input xor static cmos (loading c=0.05p~0.5p)

 ****** transient analysis tnom=  25.000 temp=  25.000 ******
  *** parameter k =   450.0000f       ***
  
 delayn=   1.1099n  targ=  41.2599n   trig=  40.1500n
 pw=  20.3624u  from=   0.             to= 640.0000n
 pdp=  22.5999f

          ***** job concluded
 ******
 3-input xor static cmos (loading c=0.05p~0.5p)

 ****** transient analysis tnom=  25.000 temp=  25.000 ******
  *** parameter k =   500.0000f       ***
  
 delayn=   1.1803n  targ=  41.3303n   trig=  40.1500n
 pw=  21.8099u  from=   0.             to= 640.0000n
 pdp=  25.7413f

          ***** job concluded
 ******  
 3-input xor static cmos (loading c=0.05p~0.5p)

 ****** job statistics summary tnom=  25.000 temp=  25.000 ******
  
  
 ******  Machine Information  ******
 CPU:
 model name	: Intel(R) Core(TM) i7-10870H CPU @ 2.20GHz
 cpu MHz	: 2206.678
  
 OS:
 Linux version 3.10.0-693.el7.x86_64 (builder@kbuilder.dev.centos.org) (gcc version 4.8.5 20150623 (Red Hat 4.8.5-16) (GCC) ) #1 SMP Tue Aug 22 21:09:27 UTC 2017


  ******  HSPICE Threads Information  ******

  Command Line Threads Count :     1
  Available CPU Count        :     2
  Actual Threads Count       :     1


  ****** Statistics of Ignored Elements ******
  Voltage Sources :       1

  ******  Circuit Statistics  ******
  # nodes       =      85 # elements   =      35
  # resistors   =       0 # capacitors =       1 # inductors   =       0
  # mutual_inds =       0 # vccs       =       0 # vcvs        =       0
  # cccs        =       0 # ccvs       =       0 # volt_srcs   =       4
  # curr_srcs   =       0 # diodes     =       0 # bjts        =       0
  # jfets       =       0 # mosfets    =      30 # U elements  =       0
  # T elements  =       0 # W elements =       0 # B elements  =       0
  # S elements  =       0 # P elements =       0 # va device   =       0
  # vector_srcs =       0 # N elements =       0


  ******  Runtime Statistics (seconds)  ******

  analysis           time    # points   tot. iter  conv.iter
  op point           0.00           1          22
  transient          1.01       64010       15302        5176 rev=       186
  readin             0.00
  errchk             0.01
  setup              0.00
  output             0.00


           peak memory used        310.34 megabytes
           total cpu time            1.03 seconds
           total elapsed time        0.58 seconds
           job started at     11:02:02 03/18/2024
           job ended   at     11:02:03 03/18/2024


 lic: Release hspice token(s) 
 lic: total license checkout elapse time:        0.02(s)
