$DATA1 SOURCE='HSPICE' VERSION='N-2017.12 linux64' PARAM_COUNT=1
.TITLE '3-input xor static cmos (loading c=0.05p~0.5p)'
 k                delayn           pw               pdp             
                  temper           alter#          
  5.000e-14        3.549e-10        8.127e-06        2.884e-15      
                    25.0000        1               
  1.000e-13        4.418e-10        9.632e-06        4.255e-15      
                    25.0000        1               
  1.500e-13        5.395e-10        1.114e-05        6.011e-15      
                    25.0000        1               
  2.000e-13        6.237e-10        1.265e-05        7.889e-15      
                    25.0000        1               
  2.500e-13        7.111e-10        1.420e-05        1.010e-14      
                    25.0000        1               
  3.000e-13        7.975e-10        1.571e-05        1.253e-14      
                    25.0000        1               
  3.500e-13        8.939e-10        1.732e-05        1.548e-14      
                    25.0000        1               
  4.000e-13        9.760e-10        1.883e-05        1.838e-14      
                    25.0000        1               
  4.500e-13        1.110e-09        2.036e-05        2.260e-14      
                    25.0000        1               
  5.000e-13        1.180e-09        2.181e-05        2.574e-14      
                    25.0000        1               
