$DATA1 SOURCE='HSPICE' VERSION='J-2014.09-2 64-BIT'
.TITLE 'inverter'
 delayn1          pw               pdp              temper          
 alter#          
  3.976e-10          0.2706         1.076e-10         25.0000       
 1               
