$DATA1 SOURCE='HSPICE' VERSION='J-2014.09-2 64-BIT'
.TITLE '2-input xor'
 k                delayn1          pw               pdp             
                  temper           alter#          
  3.000e-07        2.012e-08        4.975e-06        1.001e-13      
                    25.0000        1               
  4.000e-07        2.010e-08        5.939e-06        1.194e-13      
                    25.0000        1               
  5.000e-07        2.009e-08        6.904e-06        1.387e-13      
                    25.0000        1               
  6.000e-07        2.009e-08        7.850e-06        1.577e-13      
                    25.0000        1               
  7.000e-07        2.008e-08        8.836e-06        1.774e-13      
                    25.0000        1               
  8.000e-07        2.008e-08        9.808e-06        1.969e-13      
                    25.0000        1               
  9.000e-07        2.008e-08        1.079e-05        2.167e-13      
                    25.0000        1               
  1.000e-06        2.007e-08        1.174e-05        2.356e-13      
                    25.0000        1               
  1.100e-06        2.007e-08        1.271e-05        2.551e-13      
                    25.0000        1               
  1.200e-06        2.007e-08        1.364e-05        2.737e-13      
                    25.0000        1               
  1.300e-06        2.007e-08        1.461e-05        2.933e-13      
                    25.0000        1               
  1.400e-06        2.007e-08        1.555e-05        3.119e-13      
                    25.0000        1               
  1.500e-06        2.007e-08        1.653e-05        3.317e-13      
                    25.0000        1               
  1.600e-06        2.007e-08        1.752e-05        3.515e-13      
                    25.0000        1               
  1.700e-06        2.006e-08        1.849e-05        3.710e-13      
                    25.0000        1               
  1.800e-06        2.006e-08        1.951e-05        3.915e-13      
                    25.0000        1               
  1.900e-06        2.006e-08        2.049e-05        4.111e-13      
                    25.0000        1               
  2.000e-06        2.006e-08        2.142e-05        4.297e-13      
                    25.0000        1               
  2.100e-06        2.006e-08        2.245e-05        4.503e-13      
                    25.0000        1               
  2.200e-06        2.006e-08        2.342e-05        4.698e-13      
                    25.0000        1               
  2.300e-06        2.006e-08        2.440e-05        4.895e-13      
                    25.0000        1               
  2.400e-06        2.006e-08        2.539e-05        5.094e-13      
                    25.0000        1               
  2.500e-06        2.006e-08        2.638e-05        5.291e-13      
                    25.0000        1               
  2.600e-06        2.006e-08        2.738e-05        5.492e-13      
                    25.0000        1               
  2.700e-06        2.006e-08        2.839e-05        5.696e-13      
                    25.0000        1               
  2.800e-06        2.006e-08        2.933e-05        5.883e-13      
                    25.0000        1               
  2.900e-06        2.006e-08        3.031e-05        6.080e-13      
                    25.0000        1               
  3.000e-06        2.006e-08        3.127e-05        6.271e-13      
                    25.0000        1               
  3.100e-06        2.006e-08        3.225e-05        6.468e-13      
                    25.0000        1               
  3.200e-06        2.006e-08        3.326e-05        6.671e-13      
                    25.0000        1               
  3.300e-06        2.006e-08        3.421e-05        6.862e-13      
                    25.0000        1               
  3.400e-06        2.006e-08        3.546e-05        7.112e-13      
                    25.0000        1               
  3.500e-06        2.006e-08        3.620e-05        7.260e-13      
                    25.0000        1               
  3.600e-06        2.006e-08        3.733e-05        7.487e-13      
                    25.0000        1               
  3.700e-06        2.006e-08        3.813e-05        7.647e-13      
                    25.0000        1               
  3.800e-06        2.006e-08        3.920e-05        7.863e-13      
                    25.0000        1               
  3.900e-06        2.006e-08        4.008e-05        8.038e-13      
                    25.0000        1               
  4.000e-06        2.006e-08        4.079e-05        8.181e-13      
                    25.0000        1               
  4.100e-06        2.006e-08        4.174e-05        8.372e-13      
                    25.0000        1               
  4.200e-06        2.006e-08        4.317e-05        8.657e-13      
                    25.0000        1               
  4.300e-06        2.006e-08        4.374e-05        8.773e-13      
                    25.0000        1               
  4.400e-06        2.006e-08        4.489e-05        9.003e-13      
                    25.0000        1               
  4.500e-06        2.006e-08        4.564e-05        9.153e-13      
                    25.0000        1               
  4.600e-06        2.005e-08        4.663e-05        9.351e-13      
                    25.0000        1               
  4.700e-06        2.005e-08        4.793e-05        9.613e-13      
                    25.0000        1               
  4.800e-06        2.005e-08        4.880e-05        9.787e-13      
                    25.0000        1               
  4.900e-06        2.005e-08        4.970e-05        9.967e-13      
                    25.0000        1               
  5.000e-06        2.005e-08        5.101e-05        1.023e-12      
                    25.0000        1               
