$DATA1 SOURCE='HSPICE' VERSION='N-2017.12 linux64' PARAM_COUNT=0
.TITLE '8-input nor (loading c=0.05p)'
 delayn           pw               pdp              temper          
 alter#          
  2.300e-09        1.322e-05        3.041e-14         25.0000       
1               
