 ****** HSPICE -- N-2017.12 linux64 (Nov 21 2017) ******                        
  Copyright (c) 1986 - 2024 by Synopsys, Inc. All Rights Reserved.              
  This software and the associated documentation are proprietary
  to Synopsys, Inc. This software may only be used in accordance
  with the terms and conditions of a written license agreement with
  Synopsys, Inc. All other use, reproduction, or distribution of
  this software is strictly prohibited.
  Input File: nor8.sp                                                           
  Command line options: /eda/synopsys/hspice/2017.12/hspice/linux64/hspice -i nor8.sp -o nor8
 lic:  
 lic: FLEXlm: SDK_11.6.8.3 
 lic: USER:   user                 HOSTNAME: centos 
 lic: HOSTID: 00505631ddcc         PID:      6351 
 lic: Using FLEXlm license file: 
 lic: 27000@centos 
 lic: Checkout 1 hspice 
 lic: License/Maintenance for hspice will expire on 30-dec-2101/2100.2100 
 lic: 1(in_use)/99(total) FLOATING license(s) on SERVER 27000@centos 
 lic:   
1****** HSPICE -- N-2017.12 linux64 (Nov 21 2017) ******                        
 ******  
 8-input nor (loading c=0.05p)

 ****** circuit name directory
 circuit number to circuit name directory
   number circuitname                     definition         multiplier
        0 main circuit
        1 xnor8.                          nor                1.00 
  **info** (nor8.sp:34) DC voltage reset to initial transient source value in source 0:va. new dc=0.1800D+01
  **warning** (nor8.sp:32) Both nodes of element vgnd are connected together; Line ignored.
 

  
      
 **info** set option symb=1 internally to help for convergence.
 *****************************************************************
 ******  option summary
 ******
 runlvl  = 3         bypass  = 2.0000    
  Opening plot unit= 15
 file=nor8.pa0

 **info** dc convergence successful at Newton-Raphson method 
 ******  
 8-input nor (loading c=0.05p)

 ****** operating point information tnom=  25.000 temp=  25.000 ******
 ****** operating point status is voltage   simulation time is     0.     
    node    =voltage      node    =voltage      node    =voltage

 +0:a       =   1.8000  0:b       =   0.      0:c       =   0.     
 +0:d       =   0.      0:e       =   0.      0:f       =   0.     
 +0:g       =   0.      0:h       =   0.      0:out     =  14.0606n
 +0:vdd     =   1.8000  1:net0    = 487.8994m 1:net1    = 485.2152m
 +1:net2    = 481.4332m 1:net3    = 476.1172m 1:net4    = 468.4013m
 +1:net5    = 456.2254m 1:net6    = 432.3430m

 ******
 8-input nor (loading c=0.05p)

 ****** transient analysis tnom=  25.000 temp=  25.000 ******
 delayn=   2.3000n  targ=  22.4500n   trig=  20.1500n
 pw=  13.2202u  from=   0.             to=  80.0000n
 pdp=  30.4065f

          ***** job concluded
 ******  
 8-input nor (loading c=0.05p)

 ****** job statistics summary tnom=  25.000 temp=  25.000 ******
  
  
 ******  Machine Information  ******
 CPU:
 model name	: Intel(R) Core(TM) i7-10870H CPU @ 2.20GHz
 cpu MHz	: 2207.406
  
 OS:
 Linux version 3.10.0-693.el7.x86_64 (builder@kbuilder.dev.centos.org) (gcc version 4.8.5 20150623 (Red Hat 4.8.5-16) (GCC) ) #1 SMP Tue Aug 22 21:09:27 UTC 2017


  ******  HSPICE Threads Information  ******

  Command Line Threads Count :     1
  Available CPU Count        :     2
  Actual Threads Count       :     1


  ****** Statistics of Ignored Elements ******
  Voltage Sources :       1

  ******  Circuit Statistics  ******
  # nodes       =      50 # elements   =      26
  # resistors   =       0 # capacitors =       1 # inductors   =       0
  # mutual_inds =       0 # vccs       =       0 # vcvs        =       0
  # cccs        =       0 # ccvs       =       0 # volt_srcs   =       9
  # curr_srcs   =       0 # diodes     =       0 # bjts        =       0
  # jfets       =       0 # mosfets    =      16 # U elements  =       0
  # T elements  =       0 # W elements =       0 # B elements  =       0
  # S elements  =       0 # P elements =       0 # va device   =       0
  # vector_srcs =       0 # N elements =       0


  ******  Runtime Statistics (seconds)  ******

  analysis           time    # points   tot. iter  conv.iter
  op point           0.00           1          21
  transient          0.02         801         570         202 rev=         9
  readin             0.01
  errchk             0.01
  setup              0.00
  output             0.00


           peak memory used        310.34 megabytes
           total cpu time            0.05 seconds
           total elapsed time        0.04 seconds
           job started at     11:22:09 03/11/2024
           job ended   at     11:22:09 03/11/2024


 lic: Release hspice token(s) 
 lic: total license checkout elapse time:        0.01(s)
