$DATA1 SOURCE='HSPICE' VERSION='N-2017.12 linux64' PARAM_COUNT=0
.TITLE '4-input nand (loading c=0.05p)'
 delayn           pw               pdp              temper          
 alter#          
  2.423e-10        1.093e-05        2.648e-15         25.0000       
1               
