$DATA1 SOURCE='HSPICE' VERSION='J-2014.09-2'
.TITLE 'inverter'
 delayn1 pw pdp temper  alter#
  1.6273e-010	  1.8858e-005	  3.0687e-015	     25.000000 1
