 ****** HSPICE -- N-2017.12 linux64 (Nov 21 2017) ******                        
  Copyright (c) 1986 - 2024 by Synopsys, Inc. All Rights Reserved.              
  This software and the associated documentation are proprietary
  to Synopsys, Inc. This software may only be used in accordance
  with the terms and conditions of a written license agreement with
  Synopsys, Inc. All other use, reproduction, or distribution of
  this software is strictly prohibited.
  Input File: nand4.sp                                                          
  Command line options: /eda/synopsys/hspice/2017.12/hspice/linux64/hspice -i nand4.sp -o nand4
 lic:  
 lic: FLEXlm: SDK_11.6.8.3 
 lic: USER:   user                 HOSTNAME: centos 
 lic: HOSTID: 00505631ddcc         PID:      13293 
 lic: Using FLEXlm license file: 
 lic: 27000@centos 
 lic: Checkout 1 hspice 
 lic: License/Maintenance for hspice will expire on 30-dec-2101/2100.2100 
 lic: 1(in_use)/99(total) FLOATING license(s) on SERVER 27000@centos 
 lic:   
1****** HSPICE -- N-2017.12 linux64 (Nov 21 2017) ******                        
 ******  
 4-input nand (loading c=0.02p~0.3p)

 ****** circuit name directory
 circuit number to circuit name directory
   number circuitname                     definition         multiplier
        0 main circuit
        1 xnand4.                         nand               1.00 
  **info** (nand4.sp:27) DC voltage reset to initial transient source value in source 0:va. new dc=0.1800D+01
  **warning** (nand4.sp:24) Both nodes of element vgnd are connected together; Line ignored.
 

  
      
 **info** set option symb=1 internally to help for convergence.
 *****************************************************************
 ******  option summary
 ******
 runlvl  = 3         bypass  = 2.0000    
  Opening plot unit= 15
 file=nand4.pa0

 **info** dc convergence successful at Newton-Raphson method 

   *** parameter k =    2.000E-14 ***

 ******
 4-input nand (loading c=0.02p~0.3p)

 ****** transient analysis tnom=  25.000 temp=  25.000 ******
 delayn= 142.8183p  targ=  10.2928n   trig=  10.1500n
 pw=   6.1507u  from=   0.             to=  80.0000n
 pdp= 878.4379a

          ***** job concluded
 ******
 4-input nand (loading c=0.02p~0.3p)

 ****** transient analysis tnom=  25.000 temp=  25.000 ******
  *** parameter k =    60.0000f       ***
  
 delayn= 284.0373p  targ=  10.4340n   trig=  10.1500n
 pw=  12.6952u  from=   0.             to=  80.0000n
 pdp=   3.6059f

          ***** job concluded
 ******
 4-input nand (loading c=0.02p~0.3p)

 ****** transient analysis tnom=  25.000 temp=  25.000 ******
  *** parameter k =   100.0000f       ***
  
 delayn= 429.0763p  targ=  10.5791n   trig=  10.1500n
 pw=  18.9582u  from=   0.             to=  80.0000n
 pdp=   8.1345f

          ***** job concluded
 ******
 4-input nand (loading c=0.02p~0.3p)

 ****** transient analysis tnom=  25.000 temp=  25.000 ******
  *** parameter k =   140.0000f       ***
  
 delayn= 585.1613p  targ=  10.7352n   trig=  10.1500n
 pw=  25.9282u  from=   0.             to=  80.0000n
 pdp=  15.1722f

          ***** job concluded
 ******
 4-input nand (loading c=0.02p~0.3p)

 ****** transient analysis tnom=  25.000 temp=  25.000 ******
  *** parameter k =   180.0000f       ***
  
 delayn= 723.1256p  targ=  10.8731n   trig=  10.1500n
 pw=  32.2106u  from=   0.             to=  80.0000n
 pdp=  23.2923f

          ***** job concluded
 ******
 4-input nand (loading c=0.02p~0.3p)

 ****** transient analysis tnom=  25.000 temp=  25.000 ******
  *** parameter k =   220.0000f       ***
  
 delayn= 880.6963p  targ=  11.0307n   trig=  10.1500n
 pw=  39.4314u  from=   0.             to=  80.0000n
 pdp=  34.7271f

          ***** job concluded
 ******
 4-input nand (loading c=0.02p~0.3p)

 ****** transient analysis tnom=  25.000 temp=  25.000 ******
  *** parameter k =   260.0000f       ***
  
 delayn=   1.0939n  targ=  11.2439n   trig=  10.1500n
 pw=  47.3734u  from=   0.             to=  80.0000n
 pdp=  51.8202f

          ***** job concluded
 ******
 4-input nand (loading c=0.02p~0.3p)

 ****** transient analysis tnom=  25.000 temp=  25.000 ******
  *** parameter k =   300.0000f       ***
  
 delayn=   1.2331n  targ=  11.3831n   trig=  10.1500n
 pw=  53.4235u  from=   0.             to=  80.0000n
 pdp=  65.8785f

          ***** job concluded
 ******  
 4-input nand (loading c=0.02p~0.3p)

 ****** job statistics summary tnom=  25.000 temp=  25.000 ******
  
  
 ******  Machine Information  ******
 CPU:
 model name	: Intel(R) Core(TM) i7-10870H CPU @ 2.20GHz
 cpu MHz	: 2207.352
  
 OS:
 Linux version 3.10.0-693.el7.x86_64 (builder@kbuilder.dev.centos.org) (gcc version 4.8.5 20150623 (Red Hat 4.8.5-16) (GCC) ) #1 SMP Tue Aug 22 21:09:27 UTC 2017


  ******  HSPICE Threads Information  ******

  Command Line Threads Count :     1
  Available CPU Count        :     2
  Actual Threads Count       :     1


  ****** Statistics of Ignored Elements ******
  Voltage Sources :       1

  ******  Circuit Statistics  ******
  # nodes       =      26 # elements   =      14
  # resistors   =       0 # capacitors =       1 # inductors   =       0
  # mutual_inds =       0 # vccs       =       0 # vcvs        =       0
  # cccs        =       0 # ccvs       =       0 # volt_srcs   =       5
  # curr_srcs   =       0 # diodes     =       0 # bjts        =       0
  # jfets       =       0 # mosfets    =       8 # U elements  =       0
  # T elements  =       0 # W elements =       0 # B elements  =       0
  # S elements  =       0 # P elements =       0 # va device   =       0
  # vector_srcs =       0 # N elements =       0


  ******  Runtime Statistics (seconds)  ******

  analysis           time    # points   tot. iter  conv.iter
  op point           0.00           1           4
  transient          0.11        6408        3742        1391 rev=        81
  readin             0.02
  errchk             0.01
  setup              0.00
  output             0.00


           peak memory used        310.34 megabytes
           total cpu time            0.15 seconds
           total elapsed time        0.12 seconds
           job started at     10:35:11 03/11/2024
           job ended   at     10:35:11 03/11/2024


 lic: Release hspice token(s) 
 lic: total license checkout elapse time:        0.02(s)
