$DATA1 SOURCE='HSPICE' VERSION='N-2017.12 linux64' PARAM_COUNT=1
.TITLE '4-input nand (loading c=0.02p~0.3p)'
 k                delayn           pw               pdp             
                  temper           alter#          
  2.000e-14        1.428e-10        6.151e-06        8.784e-16      
                    25.0000        1               
  6.000e-14        2.840e-10        1.270e-05        3.606e-15      
                    25.0000        1               
  1.000e-13        4.291e-10        1.896e-05        8.134e-15      
                    25.0000        1               
  1.400e-13        5.852e-10        2.593e-05        1.517e-14      
                    25.0000        1               
  1.800e-13        7.231e-10        3.221e-05        2.329e-14      
                    25.0000        1               
  2.200e-13        8.807e-10        3.943e-05        3.473e-14      
                    25.0000        1               
  2.600e-13        1.094e-09        4.737e-05        5.182e-14      
                    25.0000        1               
  3.000e-13        1.233e-09        5.342e-05        6.588e-14      
                    25.0000        1               
