$DATA1 SOURCE='HSPICE' VERSION='J-2014.09-2 64-BIT'
.TITLE 'pseudo 3-input xor'
 delayn1          pw               pdp              temper          
 alter#          
  3.332e-10        7.031e-05        2.343e-14         25.0000       
 1               
