$DATA1 SOURCE='HSPICE' VERSION='J-2014.09-2'
.TITLE '2-input NOR'
 delayn1 pw pdp temper  alter#
  7.9278e-011	  2.1385e-006	  1.6954e-016	     25.000000 1
