 ****** HSPICE -- J-2014.09-2 64-BIT (Oct 22 2014) win64 ******                 
  Copyright (C) 2014 Synopsys, Inc. All Rights Reserved.                        
  Unpublished-rights reserved under US copyright laws.
  This program is protected by law and is subject to the
  terms and conditions of the license agreement from Synopsys.
  Use of this program is your acceptance to be bound by the
  license agreement. HSPICE is the trademark of Synopsys, Inc.
  Input File: two-bit-comparator.sp                                             
  Command line options: -i two-bit-comparator.sp -o two-bit-comparator.lis
  lic:  
  lic: FLEXlm: v10.9.8 
  lic: USER:   user                 HOSTNAME: LAPTOP-V0SVEGVF 
  lic: HOSTID: "e8f408ef740e 00ff95ffeb7e 005056c00001 005056c00008 e8f408ef740a
  e8f408ef740b eaf408e
  lic: Using FLEXlm license file: 
  lic: 27000@LAPTOP-V0SVEGVF 
  lic: Checkout 1 hspice 
  lic: License/Maintenance for hspice will expire on 30-dec-2030/2029.2029 
  lic: 1(in_use)/99(total) FLOATING license(s) on SERVER 27000@LAPTOP-V0SVEGVF 
  lic:   
 Init: read install configuration file: C:\synopsys\Hspice_J-2014.09-2\meta.cfg
  **warning** (two-bit-comparator.sp:12) Global net name, "vdd", in subckt pin list. The pin will be connected to the local net. Recommend to not use global net names in subckt pin lists.
1****** HSPICE -- J-2014.09-2 64-BIT (Oct 22 2014) win64 ******                 
 ******  
 two-bit-comparator

 ****** circuit name directory
 circuit number to circuit name directory
   number circuitname                     definition         multiplier
        0 main circuit
        1 xf1.                            comp               1.00 
        2 xf1.xa1.                        inv1               1.00 
        3 xf1.xa2.                        inv1               1.00 
        4 xf1.xa3.                        inv1               1.00 
        5 xf1.xa4.                        inv1               1.00 
        6 xf1.xb1.                        nor1               1.00 
        7 xf1.xb2.                        nand1              1.00 
        8 xf1.xb3.                        nand1              1.00 
        9 xf1.xb4.                        nand1              1.00 
       10 xf1.xb5.                        nand1              1.00 
       11 xf1.xb6.                        nor1               1.00 
       12 xf1.xc1.                        nor1               1.00 
       13 xf1.xc2.                        inv1               1.00 
       14 xf1.xc3.                        nor1               1.00 
       15 xf1.xc4.                        inv1               1.00 
       16 xf1.xd1.                        nand1              1.00 
       17 xf1.xd2.                        nand1              1.00 
       18 xf1.xe1.                        nor1               1.00 
  **info** (two-bit-comparator.sp:56) DC voltage reset to initial transient source value              in source        0:va0                 new dc=  0.1800D+01
  **warning** (two-bit-comparator.sp:9) Both nodes of element vgnd are connected together; Line ignored.
 

  
      
 **info** set option symb=1 internally to help for convergence.
 *****************************************************************
 ******  option summary
 ******
 runlvl  = 3         bypass  = 2         
  Opening plot unit= 79
 file=two-bit-comparator.pa0

 **info** dc convergence successful at Newton-Raphson method 
1****** HSPICE -- J-2014.09-2 64-BIT (Oct 22 2014) win64 ******                 
 ******  
 two-bit-comparator

 ****** operating point information tnom=  25.000 temp=  25.000 ******
 ****** operating point status is voltage   simulation time is     0.     
     node    =voltage       node    =voltage       node    =voltage

 + 0:a0      =   1.8000   0:a1      =   1.8000   0:b0      =   1.8000 
 + 0:b1      =   1.8000   0:eq      =   1.8000   0:gt      =  32.4458n
 + 0:lt      =  32.4458n  0:vdd     =   1.8000   1:a0out   =  10.9565n
 + 1:a1out   =  10.9565n  1:b0out   =  10.9565n  1:b1out   =  10.9565n
 + 1:n1      =   8.1114n  1:n10     =   1.8000   1:n2      =   1.8000 
 + 1:n3      =   1.8000   1:n4      =   1.8000   1:n5      =   1.8000 
 + 1:n6      =   8.4485n  1:n7      =   8.1114n  1:n8      =   8.4485n
 + 1:n9      =   1.8000   6:net     =   1.8000   7:net     =   7.0193n
 + 8:net     =   7.0193n  9:net     =   1.5650  10:net     =   1.5650 
 +11:net     = 402.3407m 12:net     =   1.8000  14:net     = 402.3406m
 +16:net     =  16.2229n 17:net     =  16.2229n 18:net     =   1.8000 

 ******  
 two-bit-comparator

 ****** transient analysis tnom=  25.000 temp=  25.000 ******
 delayn1= 565.5271p  targ=  15.7155n   trig=  15.1500n
 delayn2= 295.3223p  targ=  15.4453n   trig=  15.1500n
 delayn3= 382.3353p  targ=  20.5323n   trig=  20.1500n
 pw= 135.9859u  from=   0.          to=  40.0000n
 pdp=  76.9037f

          ***** job concluded
1****** HSPICE -- J-2014.09-2 64-BIT (Oct 22 2014) win64 ******                 
 ******  
 two-bit-comparator

 ****** job statistics summary tnom=  25.000 temp=  25.000 ******

  ******  HSPICE Threads Information  ******

  Command Line Threads Count :     1
  Available CPU Count        :     8
  Actual Threads Count       :     1


  ****** Statistics of Ignored Elements ******
  Voltage Sources :       1

  ******  Circuit Statistics  ******
  # nodes       =     146 # elements   =      64
  # resistors   =       0 # capacitors =       3 # inductors   =       0
  # mutual_inds =       0 # vccs       =       0 # vcvs        =       0
  # cccs        =       0 # ccvs       =       0 # volt_srcs   =       5
  # curr_srcs   =       0 # diodes     =       0 # bjts        =       0
  # jfets       =       0 # mosfets    =      56 # U elements  =       0
  # T elements  =       0 # W elements =       0 # B elements  =       0
  # S elements  =       0 # P elements =       0 # va device   =       0
  # vector_srcs =       0 # N elements =       0


  ******  Runtime Statistics (seconds)  ******

  analysis           time    # points   tot. iter  conv.iter
  op point           0.00           1          22
  transient          0.06         801        1416         468 rev=        10
  readin             0.00
  errchk             0.01
  setup              0.00
  output             0.00


           peak memory used         45.13 megabytes
           total cpu time            0.08 seconds
           total elapsed time        0.12 seconds
           job started at     14:50:37 07/10/2023
           job ended   at     14:50:37 07/10/2023


  lic: Release hspice token(s) 
 lic: total license checkout elapse time:        0.02(s)
