 ****** HSPICE -- N-2017.12 linux64 (Nov 21 2017) ******                        
  Copyright (c) 1986 - 2024 by Synopsys, Inc. All Rights Reserved.              
  This software and the associated documentation are proprietary
  to Synopsys, Inc. This software may only be used in accordance
  with the terms and conditions of a written license agreement with
  Synopsys, Inc. All other use, reproduction, or distribution of
  this software is strictly prohibited.
  Input File: eightcomp.sp                                                      
  Command line options: /eda/synopsys/hspice/2017.12/hspice/linux64/hspice -i eightcomp.sp -o eightcomp
 lic:  
 lic: FLEXlm: SDK_11.6.8.3 
 lic: USER:   user                 HOSTNAME: centos 
 lic: HOSTID: 00505631ddcc         PID:      27475 
 lic: Using FLEXlm license file: 
 lic: 27000@centos 
 lic: Checkout 1 hspice 
 lic: License/Maintenance for hspice will expire on 30-dec-2101/2100.2100 
 lic: 1(in_use)/99(total) FLOATING license(s) on SERVER 27000@centos 
 lic:   
  **warning** (eightcomp.sp:29) Global net name, "vdd", in subckt pin list. The pin will be connected to the local net. Recommend to not use global net names in subckt pin lists.
1****** HSPICE -- N-2017.12 linux64 (Nov 21 2017) ******                        
 ******  
 8-bit comparator (loading c=0.1p)

 ****** circuit name directory
 circuit number to circuit name directory
   number circuitname                     definition         multiplier
        0 main circuit
        1 x41.                            comp4              1.00 
        2 x42.                            comp4              1.00 
        3 xnf1.                           nand               1.00 
        4 xf1.                            inv                1.00 
        5 xnf2.                           nand               1.00 
        6 xf2.                            inv                1.00 
        7 xnf3.                           nor                1.00 
        8 xf3.                            inv                1.00 
        9 xnf4.                           nand               1.00 
       10 xf4.                            inv                1.00 
       11 xnf5.                           nor                1.00 
       12 xf5.                            inv                1.00 
       13 x41.xcomp1.                     comp2              1.00 
       14 x41.xcomp2.                     comp2              1.00 
       15 x41.xnf1.                       nand               1.00 
       16 x41.xf1.                        inv                1.00 
       17 x41.xnf2.                       nand               1.00 
       18 x41.xf2.                        inv                1.00 
       19 x41.xnf3.                       nor                1.00 
       20 x41.xf3.                        inv                1.00 
       21 x41.xnf4.                       nand               1.00 
       22 x41.xf4.                        inv                1.00 
       23 x41.xnf5.                       nor                1.00 
       24 x41.xf5.                        inv                1.00 
       25 x42.xcomp1.                     comp2              1.00 
       26 x42.xcomp2.                     comp2              1.00 
       27 x42.xnf1.                       nand               1.00 
       28 x42.xf1.                        inv                1.00 
       29 x42.xnf2.                       nand               1.00 
       30 x42.xf2.                        inv                1.00 
       31 x42.xnf3.                       nor                1.00 
       32 x42.xf3.                        inv                1.00 
       33 x42.xnf4.                       nand               1.00 
       34 x42.xf4.                        inv                1.00 
       35 x42.xnf5.                       nor                1.00 
       36 x42.xf5.                        inv                1.00 
       37 x41.xcomp1.xinva1.              inv                1.00 
       38 x41.xcomp1.xinva0.              inv                1.00 
       39 x41.xcomp1.xc1.                 nor                1.00 
       40 x41.xcomp1.xc2.                 nand               1.00 
       41 x41.xcomp1.xc3.                 nand               1.00 
       42 x41.xcomp1.xnc4.                nor                1.00 
       43 x41.xcomp1.xc4.                 inv                1.00 
       44 x41.xcomp1.xc5.                 nand               1.00 
       45 x41.xcomp1.xinvb1.              inv                1.00 
       46 x41.xcomp1.xinvb0.              inv                1.00 
       47 x41.xcomp1.xd2.                 nand               1.00 
       48 x41.xcomp1.xd3.                 nand               1.00 
       49 x41.xcomp1.xd1.                 nor                1.00 
       50 x41.xcomp1.xnd4.                nor                1.00 
       51 x41.xcomp1.xd4.                 inv                1.00 
       52 x41.xcomp1.xd5.                 nand               1.00 
       53 x41.xcomp1.xe1.                 nor                1.00 
       54 x41.xcomp2.xinva1.              inv                1.00 
       55 x41.xcomp2.xinva0.              inv                1.00 
       56 x41.xcomp2.xc1.                 nor                1.00 
       57 x41.xcomp2.xc2.                 nand               1.00 
       58 x41.xcomp2.xc3.                 nand               1.00 
       59 x41.xcomp2.xnc4.                nor                1.00 
       60 x41.xcomp2.xc4.                 inv                1.00 
       61 x41.xcomp2.xc5.                 nand               1.00 
       62 x41.xcomp2.xinvb1.              inv                1.00 
       63 x41.xcomp2.xinvb0.              inv                1.00 
       64 x41.xcomp2.xd2.                 nand               1.00 
       65 x41.xcomp2.xd3.                 nand               1.00 
       66 x41.xcomp2.xd1.                 nor                1.00 
       67 x41.xcomp2.xnd4.                nor                1.00 
       68 x41.xcomp2.xd4.                 inv                1.00 
       69 x41.xcomp2.xd5.                 nand               1.00 
       70 x41.xcomp2.xe1.                 nor                1.00 
       71 x42.xcomp1.xinva1.              inv                1.00 
       72 x42.xcomp1.xinva0.              inv                1.00 
       73 x42.xcomp1.xc1.                 nor                1.00 
       74 x42.xcomp1.xc2.                 nand               1.00 
       75 x42.xcomp1.xc3.                 nand               1.00 
       76 x42.xcomp1.xnc4.                nor                1.00 
       77 x42.xcomp1.xc4.                 inv                1.00 
       78 x42.xcomp1.xc5.                 nand               1.00 
       79 x42.xcomp1.xinvb1.              inv                1.00 
       80 x42.xcomp1.xinvb0.              inv                1.00 
       81 x42.xcomp1.xd2.                 nand               1.00 
       82 x42.xcomp1.xd3.                 nand               1.00 
       83 x42.xcomp1.xd1.                 nor                1.00 
       84 x42.xcomp1.xnd4.                nor                1.00 
       85 x42.xcomp1.xd4.                 inv                1.00 
       86 x42.xcomp1.xd5.                 nand               1.00 
       87 x42.xcomp1.xe1.                 nor                1.00 
       88 x42.xcomp2.xinva1.              inv                1.00 
       89 x42.xcomp2.xinva0.              inv                1.00 
       90 x42.xcomp2.xc1.                 nor                1.00 
       91 x42.xcomp2.xc2.                 nand               1.00 
       92 x42.xcomp2.xc3.                 nand               1.00 
       93 x42.xcomp2.xnc4.                nor                1.00 
       94 x42.xcomp2.xc4.                 inv                1.00 
       95 x42.xcomp2.xc5.                 nand               1.00 
       96 x42.xcomp2.xinvb1.              inv                1.00 
       97 x42.xcomp2.xinvb0.              inv                1.00 
       98 x42.xcomp2.xd2.                 nand               1.00 
       99 x42.xcomp2.xd3.                 nand               1.00 
      100 x42.xcomp2.xd1.                 nor                1.00 
      101 x42.xcomp2.xnd4.                nor                1.00 
      102 x42.xcomp2.xd4.                 inv                1.00 
      103 x42.xcomp2.xd5.                 nand               1.00 
      104 x42.xcomp2.xe1.                 nor                1.00 
  **info** (eightcomp.sp:119) DC voltage reset to initial transient source value in source 0:va0. new dc=0.1800D+01
  **warning** (eightcomp.sp:91) Both nodes of element vgnd are connected together; Line ignored.
 

  
      
 **info** set option symb=1 internally to help for convergence.
 *****************************************************************
 ******  option summary
 ******
 runlvl  = 3         bypass  = 2.0000    
  Opening plot unit= 15
 file=eightcomp.pa0

 **info** dc convergence successful at Newton-Raphson method 
 ******  
 8-bit comparator (loading c=0.1p)

 ****** operating point information tnom=  25.000 temp=  25.000 ******
 ****** operating point status is voltage   simulation time is     0.     
      node    =voltage        node    =voltage        node    =voltage

 +  0:a0      =   1.8000    0:a1      =   1.8000    0:a2      =   1.8000 
 +  0:a3      =   1.8000    0:a4      =   1.8000    0:a5      =   1.8000 
 +  0:a6      =   1.8000    0:a7      =   1.8000    0:b0      =   1.8000 
 +  0:b1      =   1.8000    0:b2      =   1.8000    0:b3      =   1.8000 
 +  0:b4      =   1.8000    0:b5      =   1.8000    0:b6      =   1.8000 
 +  0:b7      =   1.8000    0:eq      =   1.8000    0:f1      =  17.6169n
 +  0:f2      =  17.6169n   0:gt      =  17.6169n   0:lt      =  17.6169n
 +  0:net0    =  17.6169n   0:net1    =   1.8000    0:net2    =  17.6169n
 +  0:net3    =  17.6169n   0:net4    =   1.8000    0:net5    =  17.6169n
 +  0:netf1   =   1.8000    0:netf2   =   1.8000    0:netf3   =   1.8000 
 +  0:netf4   =  30.4122n   0:netf5   =   1.8000    0:vdd     =   1.8000 
 +  1:f1      =  17.6169n   1:f2      =  17.6169n   1:net0    =  30.4122n
 +  1:net1    =   1.8000    1:net2    =  30.4122n   1:net3    =  30.4122n
 +  1:net4    =   1.8000    1:net5    =  30.4122n   1:netf1   =   1.8000 
 +  1:netf2   =   1.8000    1:netf3   =   1.8000    1:netf4   =  30.4122n
 +  1:netf5   =   1.8000    2:f1      =  17.6169n   2:f2      =  17.6169n
 +  2:net0    =  30.4122n   2:net1    =   1.8000    2:net2    =  30.4122n
 +  2:net3    =  30.4122n   2:net4    =   1.8000    2:net5    =  30.4122n
 +  2:netf1   =   1.8000    2:netf2   =   1.8000    2:netf3   =   1.8000 
 +  2:netf4   =  30.4122n   2:netf5   =   1.8000    3:net     =   1.5613 
 +  5:net     =   1.5613    7:net0    =   1.8000    9:net     =  15.2061n
 + 11:net0    =   1.8000   13:c1      =   7.6030n  13:c2      =   1.8000 
 + 13:c3      =   1.8000   13:c4      =   1.8000   13:d1      =   7.6030n
 + 13:d2      =   1.8000   13:d3      =   1.8000   13:d4      =   1.8000 
 + 13:inva0   =  17.6169n  13:inva1   =  17.6169n  13:invb0   =  17.6169n
 + 13:invb1   =  17.6169n  13:netc4   =   7.6030n  13:netd4   =   7.2741n
 + 14:c1      =   7.6030n  14:c2      =   1.8000   14:c3      =   1.8000 
 + 14:c4      =   1.8000   14:d1      =   7.6030n  14:d2      =   1.8000 
 + 14:d3      =   1.8000   14:d4      =   1.8000   14:inva0   =  17.6169n
 + 14:inva1   =  17.6169n  14:invb0   =  17.6169n  14:invb1   =  17.6169n
 + 14:netc4   =   7.6030n  14:netd4   =   7.2741n  15:net     =   1.5613 
 + 17:net     =   1.5613   19:net0    =   1.8000   21:net     =  15.2061n
 + 23:net0    =   1.8000   25:c1      =   7.6030n  25:c2      =   1.8000 
 + 25:c3      =   1.8000   25:c4      =   1.8000   25:d1      =   7.6030n
 + 25:d2      =   1.8000   25:d3      =   1.8000   25:d4      =   1.8000 
 + 25:inva0   =  17.6169n  25:inva1   =  17.6169n  25:invb0   =  17.6169n
 + 25:invb1   =  17.6169n  25:netc4   =   7.6030n  25:netd4   =   7.2741n
 + 26:c1      =   7.6030n  26:c2      =   1.8000   26:c3      =   1.8000 
 + 26:c4      =   1.8000   26:d1      =   7.6030n  26:d2      =   1.8000 
 + 26:d3      =   1.8000   26:d4      =   1.8000   26:inva0   =  17.6169n
 + 26:inva1   =  17.6169n  26:invb0   =  17.6169n  26:invb1   =  17.6169n
 + 26:netc4   =   7.6030n  26:netd4   =   7.2741n  27:net     =   1.5613 
 + 29:net     =   1.5613   31:net0    =   1.8000   33:net     =  15.2061n
 + 35:net0    =   1.8000   39:net0    =   1.8000   40:net     =   4.5842n
 + 41:net     =   1.5613   42:net0    =   1.8000   44:net     =  15.2061n
 + 47:net     =   1.5613   48:net     =   1.5613   49:net0    =   1.8000 
 + 50:net0    = 396.8603m  52:net     =  15.2061n  53:net0    =   1.8000 
 + 56:net0    =   1.8000   57:net     =   4.5842n  58:net     =   1.5613 
 + 59:net0    =   1.8000   61:net     =  15.2061n  64:net     =   1.5613 
 + 65:net     =   1.5613   66:net0    =   1.8000   67:net0    = 396.8604m
 + 69:net     =  15.2061n  70:net0    =   1.8000   73:net0    =   1.8000 
 + 74:net     =   4.5842n  75:net     =   1.5613   76:net0    =   1.8000 
 + 78:net     =  15.2061n  81:net     =   1.5613   82:net     =   1.5613 
 + 83:net0    =   1.8000   84:net0    = 396.8604m  86:net     =  15.2061n
 + 87:net0    =   1.8000   90:net0    =   1.8000   91:net     =   4.5842n
 + 92:net     =   1.5613   93:net0    =   1.8000   95:net     =  15.2061n
 + 98:net     =   1.5613   99:net     =   1.5613  100:net0    =   1.8000 
 +101:net0    = 396.8603m 103:net     =  15.2061n 104:net0    =   1.8000 

 ******
 8-bit comparator (loading c=0.1p)

 ****** transient analysis tnom=  25.000 temp=  25.000 ******
 delay_lt=   2.8405n  targ=   5.4905n   trig=   2.6500n
 delay_eq= 427.7691p  targ=   3.0778n   trig=   2.6500n
 delay_gt= -37.2076n  targ=   2.9424n   trig=  40.1500n
 pw= 447.4758u  from=   0.             to=   5.1200u

          ***** job concluded
 ******  
 8-bit comparator (loading c=0.1p)

 ****** job statistics summary tnom=  25.000 temp=  25.000 ******
  
  
 ******  Machine Information  ******
 CPU:
 model name	: Intel(R) Core(TM) i7-10870H CPU @ 2.20GHz
 cpu MHz	: 2206.678
  
 OS:
 Linux version 3.10.0-693.el7.x86_64 (builder@kbuilder.dev.centos.org) (gcc version 4.8.5 20150623 (Red Hat 4.8.5-16) (GCC) ) #1 SMP Tue Aug 22 21:09:27 UTC 2017


  ******  HSPICE Threads Information  ******

  Command Line Threads Count :     1
  Available CPU Count        :     2
  Actual Threads Count       :     1


  ****** Statistics of Ignored Elements ******
  Voltage Sources :       1

  ******  Circuit Statistics  ******
  # nodes       =     803 # elements   =     334
  # resistors   =       0 # capacitors =       3 # inductors   =       0
  # mutual_inds =       0 # vccs       =       0 # vcvs        =       0
  # cccs        =       0 # ccvs       =       0 # volt_srcs   =      17
  # curr_srcs   =       0 # diodes     =       0 # bjts        =       0
  # jfets       =       0 # mosfets    =     314 # U elements  =       0
  # T elements  =       0 # W elements =       0 # B elements  =       0
  # S elements  =       0 # P elements =       0 # va device   =       0
  # vector_srcs =       0 # N elements =       0


  ******  Runtime Statistics (seconds)  ******

  analysis           time    # points   tot. iter  conv.iter
  op point           0.02           1          23
  transient         43.17        1025      255359       82342 rev=       775
  readin             0.02
  errchk             0.01
  setup              0.01
  output             0.00


           peak memory used        313.12 megabytes
           total cpu time           43.26 seconds
           total elapsed time       42.90 seconds
           job started at     21:58:27 04/21/2024
           job ended   at     21:59:09 04/21/2024


 lic: Release hspice token(s) 
 lic: total license checkout elapse time:        0.01(s)
