$DATA1 SOURCE='HSPICE' VERSION='N-2017.12 linux64' PARAM_COUNT=0
.TITLE '8-bit comparator (loading c=0.1p)'
 delay_lt         delay_eq         delay_gt         pw              
 temper           alter#          
  2.840e-09        4.278e-10       -3.721e-08        4.475e-04      
   25.0000        1               
