$DATA1 SOURCE='HSPICE' VERSION='J-2014.09-2'
.TITLE '2-input NAND'
 delayn1 delayn2 delayn3 delayn4 pw pdp temper  alter#
  8.4421e-009	  4.4761e-010	  8.4430e-009	  4.3547e-010	  3.8467e-004	  3.2475e-012	
     25.000000 1
