$DATA1 SOURCE='HSPICE' VERSION='J-2014.09-2 64-BIT'
.TITLE '4-input nand'
 k                delayn1          pw               pdp             
                  temper           alter#          
  6.000e-07        8.966e-11        8.440e-07        7.567e-17      
                    25.0000        1               
  8.000e-07        7.439e-11        9.393e-07        6.987e-17      
                    25.0000        1               
  1.000e-06        6.434e-11        1.039e-06        6.682e-17      
                    25.0000        1               
  1.200e-06        5.834e-11        1.198e-06        6.987e-17      
                    25.0000        1               
  1.400e-06        5.529e-11        1.285e-06        7.106e-17      
                    25.0000        1               
  1.600e-06        5.185e-11        1.388e-06        7.198e-17      
                    25.0000        1               
  1.800e-06        4.947e-11        1.543e-06        7.634e-17      
                    25.0000        1               
  2.000e-06        4.747e-11        1.619e-06        7.687e-17      
                    25.0000        1               
  2.200e-06        4.571e-11        1.754e-06        8.020e-17      
                    25.0000        1               
  2.400e-06        4.444e-11        1.901e-06        8.450e-17      
                    25.0000        1               
  2.600e-06        4.328e-11        1.955e-06        8.462e-17      
                    25.0000        1               
  2.800e-06        4.226e-11        2.054e-06        8.683e-17      
                    25.0000        1               
  3.000e-06        4.138e-11        2.177e-06        9.008e-17      
                    25.0000        1               
  3.200e-06        4.045e-11        2.312e-06        9.353e-17      
                    25.0000        1               
  3.400e-06        3.972e-11        2.424e-06        9.627e-17      
                    25.0000        1               
  3.600e-06        3.866e-11        2.539e-06        9.817e-17      
                    25.0000        1               
  3.800e-06        3.856e-11        2.655e-06        1.024e-16      
                    25.0000        1               
  4.000e-06        3.809e-11        2.777e-06        1.058e-16      
                    25.0000        1               
  4.200e-06        3.757e-11        2.894e-06        1.087e-16      
                    25.0000        1               
  4.400e-06        3.621e-11        3.003e-06        1.087e-16      
                    25.0000        1               
  4.600e-06        3.595e-11        3.102e-06        1.115e-16      
                    25.0000        1               
  4.800e-06        3.496e-11        3.188e-06        1.115e-16      
                    25.0000        1               
  5.000e-06        3.445e-11        3.272e-06        1.127e-16      
                    25.0000        1               
  5.200e-06        3.581e-11        3.401e-06        1.218e-16      
                    25.0000        1               
  5.400e-06        3.398e-11        3.384e-06        1.150e-16      
                    25.0000        1               
  5.600e-06        3.526e-11        3.535e-06        1.246e-16      
                    25.0000        1               
  5.800e-06        3.320e-11        3.643e-06        1.209e-16      
                    25.0000        1               
  6.000e-06        3.293e-11        3.805e-06        1.253e-16      
                    25.0000        1               
  6.200e-06        3.269e-11        3.919e-06        1.281e-16      
                    25.0000        1               
  6.400e-06        3.244e-11        4.158e-06        1.349e-16      
                    25.0000        1               
  6.600e-06        3.221e-11        4.215e-06        1.358e-16      
                    25.0000        1               
  6.800e-06        3.199e-11        4.334e-06        1.387e-16      
                    25.0000        1               
  7.000e-06        3.179e-11        4.431e-06        1.409e-16      
                    25.0000        1               
  7.200e-06        3.160e-11        4.546e-06        1.437e-16      
                    25.0000        1               
  7.400e-06        3.143e-11        4.665e-06        1.466e-16      
                    25.0000        1               
  7.600e-06        3.125e-11        4.766e-06        1.490e-16      
                    25.0000        1               
  7.800e-06        3.108e-11        4.883e-06        1.518e-16      
                    25.0000        1               
  8.000e-06        3.093e-11        4.992e-06        1.544e-16      
                    25.0000        1               
  8.200e-06        3.077e-11        5.058e-06        1.556e-16      
                    25.0000        1               
  8.400e-06        3.063e-11        5.168e-06        1.583e-16      
                    25.0000        1               
  8.600e-06        3.050e-11        5.278e-06        1.610e-16      
                    25.0000        1               
  8.800e-06        3.038e-11        5.392e-06        1.638e-16      
                    25.0000        1               
  9.000e-06        3.024e-11        5.488e-06        1.660e-16      
                    25.0000        1               
  9.200e-06        3.014e-11        5.549e-06        1.672e-16      
                    25.0000        1               
  9.400e-06        3.002e-11        5.672e-06        1.703e-16      
                    25.0000        1               
  9.600e-06        2.991e-11        5.779e-06        1.729e-16      
                    25.0000        1               
  9.800e-06        2.980e-11        5.950e-06        1.773e-16      
                    25.0000        1               
  1.000e-05        2.970e-11        6.067e-06        1.802e-16      
                    25.0000        1               
