 ****** HSPICE -- N-2017.12 linux64 (Nov 21 2017) ******                        
  Copyright (c) 1986 - 2024 by Synopsys, Inc. All Rights Reserved.              
  This software and the associated documentation are proprietary
  to Synopsys, Inc. This software may only be used in accordance
  with the terms and conditions of a written license agreement with
  Synopsys, Inc. All other use, reproduction, or distribution of
  this software is strictly prohibited.
  Input File: xor3.sp                                                           
  Command line options: /eda/synopsys/hspice/2017.12/hspice/linux64/hspice -i xor3.sp -o xor3
 lic:  
 lic: FLEXlm: SDK_11.6.8.3 
 lic: USER:   user                 HOSTNAME: centos 
 lic: HOSTID: 00505631ddcc         PID:      15118 
 lic: Using FLEXlm license file: 
 lic: 27000@centos 
 lic: Checkout 1 hspice 
 lic: License/Maintenance for hspice will expire on 30-dec-2101/2100.2100 
 lic: 1(in_use)/99(total) FLOATING license(s) on SERVER 27000@centos 
 lic:   
1****** HSPICE -- N-2017.12 linux64 (Nov 21 2017) ******                        
 ******  
 lab3-2 pseudo-nmos 3-input xor (loading c=0.05p~0.5p)

 ****** circuit name directory
 circuit number to circuit name directory
   number circuitname                     definition         multiplier
        0 main circuit
        1 xxor3.                          xor                1.00 
        2 xxor3.xinva.                    inv                1.00 
        3 xxor3.xinvb.                    inv                1.00 
        4 xxor3.xinvc.                    inv                1.00 
  **info** (xor3.sp:45) DC voltage reset to initial transient source value in source 0:va. new dc=0.1800D+01
  **warning** (xor3.sp:43) Both nodes of element vgnd are connected together; Line ignored.
 

  
      
 **info** set option symb=1 internally to help for convergence.
 *****************************************************************
 ******  option summary
 ******
 runlvl  = 3         bypass  = 2.0000    
  Opening plot unit= 15
 file=xor3.pa0

 **info** dc convergence successful at Newton-Raphson method 

   *** parameter k =    5.000E-14 ***

 ******
 lab3-2 pseudo-nmos 3-input xor (loading c=0.05p~0.5p)

 ****** transient analysis tnom=  25.000 temp=  25.000 ******
 delayn= 507.7932p  targ= 160.6578n   trig= 160.1500n
 pw= 126.4103u  from=   0.             to= 640.0000n
 pdp=  64.1903f

          ***** job concluded
 ******
 lab3-2 pseudo-nmos 3-input xor (loading c=0.05p~0.5p)

 ****** transient analysis tnom=  25.000 temp=  25.000 ******
  *** parameter k =   100.0000f       ***
  
 delayn= 855.9204p  targ= 161.0059n   trig= 160.1500n
 pw= 127.6726u  from=   0.             to= 640.0000n
 pdp= 109.2776f

          ***** job concluded
 ******
 lab3-2 pseudo-nmos 3-input xor (loading c=0.05p~0.5p)

 ****** transient analysis tnom=  25.000 temp=  25.000 ******
  *** parameter k =   150.0000f       ***
  
 delayn=   1.1927n  targ= 161.3427n   trig= 160.1500n
 pw= 129.0964u  from=   0.             to= 640.0000n
 pdp= 153.9794f

          ***** job concluded
 ******
 lab3-2 pseudo-nmos 3-input xor (loading c=0.05p~0.5p)

 ****** transient analysis tnom=  25.000 temp=  25.000 ******
  *** parameter k =   200.0000f       ***
  
 delayn=   1.5147n  targ= 161.6647n   trig= 160.1500n
 pw= 130.5055u  from=   0.             to= 640.0000n
 pdp= 197.6709f

          ***** job concluded
 ******
 lab3-2 pseudo-nmos 3-input xor (loading c=0.05p~0.5p)

 ****** transient analysis tnom=  25.000 temp=  25.000 ******
  *** parameter k =   250.0000f       ***
  
 delayn=   1.8767n  targ= 162.0267n   trig= 160.1500n
 pw= 131.9083u  from=   0.             to= 640.0000n
 pdp= 247.5532f

          ***** job concluded
 ******
 lab3-2 pseudo-nmos 3-input xor (loading c=0.05p~0.5p)

 ****** transient analysis tnom=  25.000 temp=  25.000 ******
  *** parameter k =   300.0000f       ***
  
 delayn=   2.2078n  targ= 162.3578n   trig= 160.1500n
 pw= 133.3439u  from=   0.             to= 640.0000n
 pdp= 294.3944f

          ***** job concluded
 ******
 lab3-2 pseudo-nmos 3-input xor (loading c=0.05p~0.5p)

 ****** transient analysis tnom=  25.000 temp=  25.000 ******
  *** parameter k =   350.0000f       ***
  
 delayn=   2.5194n  targ= 162.6694n   trig= 160.1500n
 pw= 134.7687u  from=   0.             to= 640.0000n
 pdp= 339.5321f

          ***** job concluded
 ******
 lab3-2 pseudo-nmos 3-input xor (loading c=0.05p~0.5p)

 ****** transient analysis tnom=  25.000 temp=  25.000 ******
  *** parameter k =   400.0000f       ***
  
 delayn=   2.8204n  targ= 162.9704n   trig= 160.1500n
 pw= 136.1359u  from=   0.             to= 640.0000n
 pdp= 383.9578f

          ***** job concluded
 ******
 lab3-2 pseudo-nmos 3-input xor (loading c=0.05p~0.5p)

 ****** transient analysis tnom=  25.000 temp=  25.000 ******
  *** parameter k =   450.0000f       ***
  
 delayn=   3.1837n  targ= 163.3337n   trig= 160.1500n
 pw= 137.5764u  from=   0.             to= 640.0000n
 pdp= 437.9998f

          ***** job concluded
 ******
 lab3-2 pseudo-nmos 3-input xor (loading c=0.05p~0.5p)

 ****** transient analysis tnom=  25.000 temp=  25.000 ******
  *** parameter k =   500.0000f       ***
  
 delayn=   3.5307n  targ= 163.6807n   trig= 160.1500n
 pw= 138.9781u  from=   0.             to= 640.0000n
 pdp= 490.6873f

          ***** job concluded
 ******  
 lab3-2 pseudo-nmos 3-input xor (loading c=0.05p~0.5p)

 ****** job statistics summary tnom=  25.000 temp=  25.000 ******
  
  
 ******  Machine Information  ******
 CPU:
 model name	: Intel(R) Core(TM) i7-10870H CPU @ 2.20GHz
 cpu MHz	: 2207.414
  
 OS:
 Linux version 3.10.0-693.el7.x86_64 (builder@kbuilder.dev.centos.org) (gcc version 4.8.5 20150623 (Red Hat 4.8.5-16) (GCC) ) #1 SMP Tue Aug 22 21:09:27 UTC 2017


  ******  HSPICE Threads Information  ******

  Command Line Threads Count :     1
  Available CPU Count        :     2
  Actual Threads Count       :     1


  ****** Statistics of Ignored Elements ******
  Voltage Sources :       1

  ******  Circuit Statistics  ******
  # nodes       =      55 # elements   =      24
  # resistors   =       0 # capacitors =       1 # inductors   =       0
  # mutual_inds =       0 # vccs       =       0 # vcvs        =       0
  # cccs        =       0 # ccvs       =       0 # volt_srcs   =       4
  # curr_srcs   =       0 # diodes     =       0 # bjts        =       0
  # jfets       =       0 # mosfets    =      19 # U elements  =       0
  # T elements  =       0 # W elements =       0 # B elements  =       0
  # S elements  =       0 # P elements =       0 # va device   =       0
  # vector_srcs =       0 # N elements =       0


  ******  Runtime Statistics (seconds)  ******

  analysis           time    # points   tot. iter  conv.iter
  op point           0.00           1          22
  transient          0.55       64010       12808        4497 rev=       144
  readin             0.01
  errchk             0.01
  setup              0.00
  output             0.00


           peak memory used        310.34 megabytes
           total cpu time            0.57 seconds
           total elapsed time        0.31 seconds
           job started at     02:46:52 03/24/2024
           job ended   at     02:46:52 03/24/2024


 lic: Release hspice token(s) 
 lic: total license checkout elapse time:        0.01(s)
