$DATA1 SOURCE='HSPICE' VERSION='N-2017.12 linux64' PARAM_COUNT=1
.TITLE 'lab3-2 pseudo-nmos 3-input xor (loading c=0.05p~0.5p)'
 k                delayn           pw               pdp             
                  temper           alter#          
  5.000e-14        5.078e-10        1.264e-04        6.419e-14      
                    25.0000        1               
  1.000e-13        8.559e-10        1.277e-04        1.093e-13      
                    25.0000        1               
  1.500e-13        1.193e-09        1.291e-04        1.540e-13      
                    25.0000        1               
  2.000e-13        1.515e-09        1.305e-04        1.977e-13      
                    25.0000        1               
  2.500e-13        1.877e-09        1.319e-04        2.476e-13      
                    25.0000        1               
  3.000e-13        2.208e-09        1.333e-04        2.944e-13      
                    25.0000        1               
  3.500e-13        2.519e-09        1.348e-04        3.395e-13      
                    25.0000        1               
  4.000e-13        2.820e-09        1.361e-04        3.840e-13      
                    25.0000        1               
  4.500e-13        3.184e-09        1.376e-04        4.380e-13      
                    25.0000        1               
  5.000e-13        3.531e-09        1.390e-04        4.907e-13      
                    25.0000        1               
