$DATA1 SOURCE='HSPICE' VERSION='J-2014.09-2'
.TITLE 'four-bit-comparator'
 delayn1 delayn2 delayn3 pw pdp temper  alter#
  6.9888e-010	  4.0387e-010	  5.7750e-010	  1.1466e-004	  8.0136e-014	     25.000000 1
