$DATA1 SOURCE='HSPICE' VERSION='J-2014.09-2'
.TITLE 'one-bit-comparator'
 delayn1 delayn2 delayn3 pw pdp temper  alter#
  4.2087e-010	  2.1040e-010	  1.8622e-010	  1.4436e-004	  6.0758e-014	     25.000000 1
