$DATA1 SOURCE='HSPICE' VERSION='J-2014.09-2 64-BIT'
.TITLE '2-input nand'
 k                delayn1          pw               pdp             
                  temper           alter#          
  3.000e-07        9.608e-11        2.256e-06        2.168e-16      
                    25.0000        1               
  4.000e-07        7.881e-11        2.268e-06        1.787e-16      
                    25.0000        1               
  5.000e-07        7.046e-11        2.424e-06        1.708e-16      
                    25.0000        1               
  6.000e-07        6.379e-11        2.599e-06        1.658e-16      
                    25.0000        1               
  7.000e-07        5.898e-11        2.811e-06        1.658e-16      
                    25.0000        1               
  8.000e-07        5.545e-11        3.039e-06        1.685e-16      
                    25.0000        1               
  9.000e-07        5.264e-11        3.278e-06        1.726e-16      
                    25.0000        1               
  1.000e-06        5.037e-11        3.418e-06        1.722e-16      
                    25.0000        1               
  1.100e-06        4.835e-11        3.527e-06        1.706e-16      
                    25.0000        1               
  1.200e-06        4.663e-11        3.674e-06        1.713e-16      
                    25.0000        1               
  1.300e-06        4.514e-11        3.808e-06        1.719e-16      
                    25.0000        1               
  1.400e-06        4.381e-11        3.897e-06        1.707e-16      
                    25.0000        1               
  1.500e-06        4.270e-11        4.139e-06        1.767e-16      
                    25.0000        1               
  1.600e-06        4.171e-11        4.160e-06        1.735e-16      
                    25.0000        1               
  1.700e-06        4.073e-11        4.271e-06        1.740e-16      
                    25.0000        1               
  1.800e-06        4.072e-11        4.362e-06        1.776e-16      
                    25.0000        1               
  1.900e-06        4.009e-11        4.591e-06        1.841e-16      
                    25.0000        1               
  2.000e-06        3.837e-11        4.704e-06        1.805e-16      
                    25.0000        1               
  2.100e-06        3.774e-11        4.743e-06        1.790e-16      
                    25.0000        1               
  2.200e-06        3.687e-11        4.881e-06        1.800e-16      
                    25.0000        1               
  2.300e-06        3.631e-11        5.023e-06        1.824e-16      
                    25.0000        1               
  2.400e-06        3.580e-11        5.173e-06        1.852e-16      
                    25.0000        1               
  2.500e-06        3.538e-11        5.309e-06        1.879e-16      
                    25.0000        1               
  2.600e-06        3.505e-11        5.461e-06        1.914e-16      
                    25.0000        1               
  2.700e-06        3.496e-11        5.594e-06        1.956e-16      
                    25.0000        1               
  2.800e-06        3.458e-11        5.743e-06        1.986e-16      
                    25.0000        1               
  2.900e-06        3.426e-11        5.848e-06        2.003e-16      
                    25.0000        1               
  3.000e-06        3.317e-11        6.007e-06        1.993e-16      
                    25.0000        1               
  3.100e-06        3.286e-11        6.136e-06        2.017e-16      
                    25.0000        1               
  3.200e-06        3.321e-11        6.264e-06        2.081e-16      
                    25.0000        1               
  3.300e-06        3.247e-11        6.424e-06        2.086e-16      
                    25.0000        1               
  3.400e-06        3.279e-11        6.398e-06        2.098e-16      
                    25.0000        1               
  3.500e-06        3.162e-11        6.565e-06        2.076e-16      
                    25.0000        1               
  3.600e-06        3.162e-11        6.761e-06        2.138e-16      
                    25.0000        1               
  3.700e-06        3.124e-11        6.998e-06        2.186e-16      
                    25.0000        1               
  3.800e-06        3.086e-11        7.122e-06        2.198e-16      
                    25.0000        1               
  3.900e-06        3.064e-11        7.259e-06        2.224e-16      
                    25.0000        1               
  4.000e-06        3.043e-11        7.333e-06        2.231e-16      
                    25.0000        1               
  4.100e-06        3.060e-11        7.503e-06        2.296e-16      
                    25.0000        1               
  4.200e-06        3.048e-11        7.730e-06        2.356e-16      
                    25.0000        1               
  4.300e-06        3.023e-11        7.875e-06        2.381e-16      
                    25.0000        1               
  4.400e-06        2.993e-11        8.005e-06        2.396e-16      
                    25.0000        1               
  4.500e-06        2.966e-11        8.027e-06        2.381e-16      
                    25.0000        1               
  4.600e-06        2.977e-11        8.250e-06        2.456e-16      
                    25.0000        1               
  4.700e-06        2.958e-11        8.349e-06        2.470e-16      
                    25.0000        1               
  4.800e-06        2.900e-11        8.495e-06        2.463e-16      
                    25.0000        1               
  4.900e-06        2.928e-11        8.566e-06        2.508e-16      
                    25.0000        1               
  5.000e-06        2.873e-11        8.843e-06        2.541e-16      
                    25.0000        1               
