 ****** HSPICE -- N-2017.12 linux64 (Nov 21 2017) ******                        
  Copyright (c) 1986 - 2024 by Synopsys, Inc. All Rights Reserved.              
  This software and the associated documentation are proprietary
  to Synopsys, Inc. This software may only be used in accordance
  with the terms and conditions of a written license agreement with
  Synopsys, Inc. All other use, reproduction, or distribution of
  this software is strictly prohibited.
  Input File: nand2.sp                                                          
  Command line options: /eda/synopsys/hspice/2017.12/hspice/linux64/hspice -i nand2.sp -o nand2
 lic:  
 lic: FLEXlm: SDK_11.6.8.3 
 lic: USER:   user                 HOSTNAME: centos 
 lic: HOSTID: 00505631ddcc         PID:      10125 
 lic: Using FLEXlm license file: 
 lic: 27000@centos 
 lic: Checkout 1 hspice 
 lic: License/Maintenance for hspice will expire on 30-dec-2101/2100.2100 
 lic: 1(in_use)/99(total) FLOATING license(s) on SERVER 27000@centos 
 lic:   
1****** HSPICE -- N-2017.12 linux64 (Nov 21 2017) ******                        
 ******  
 lab5-2 cascaded dynamic nand (loading c=0.1p)

 ****** circuit name directory
 circuit number to circuit name directory
   number circuitname                     definition         multiplier
        0 main circuit
        1 xnand1.                         nand               1.00 
        2 xinv1.                          inv                1.00 
        3 xnand2.                         nand               1.00 
        4 xinv2.                          inv                1.00 
        5 xnand3.                         nand               1.00 
        6 xinv3.                          inv                1.00 
        7 xnand4.                         nand               1.00 
        8 xinv4.                          inv                1.00 
  **info** (nand2.sp:42) DC voltage reset to initial transient source value in source 0:va. new dc=0.1800D+01
  **warning** (nand2.sp:40) Both nodes of element vgnd are connected together; Line ignored.
 

  
      
 **info** set option symb=1 internally to help for convergence.
 *****************************************************************
 ******  option summary
 ******
 runlvl  = 3         bypass  = 2.0000    
  Opening plot unit= 15
 file=nand2.pa0

 **info** dc convergence successful at Newton-Raphson method 
 ******  
 lab5-2 cascaded dynamic nand (loading c=0.1p)

 ****** operating point information tnom=  25.000 temp=  25.000 ******
 ****** operating point status is voltage   simulation time is     0.     
    node    =voltage      node    =voltage      node    =voltage

 +0:a       =   1.8000  0:b       =   1.8000  0:c       =   1.8000 
 +0:clk     =   0.      0:d       =   1.8000  0:e       =   1.8000 
 +0:invout1 =  10.9565n 0:invout2 =  10.9565n 0:invout3 =  10.9565n
 +0:invout4 =  10.9565n 0:out1    =   1.8000  0:out2    =   1.8000 
 +0:out3    =   1.8000  0:out4    =   1.8000  0:vdd     =   1.8000 
 +1:net     =   1.5604  1:net1    =   1.5397  3:net     =   1.5894 
 +3:net1    =  59.3500m 5:net     =   1.5894  5:net1    =  59.3500m
 +7:net     =   1.5894  7:net1    =  59.3500m

 ******
 lab5-2 cascaded dynamic nand (loading c=0.1p)

 ****** transient analysis tnom=  25.000 temp=  25.000 ******
 delaynand1= 438.9462p  targ=  10.5889n   trig=  10.1500n
 delaynand2= 861.9033p  targ=  11.0119n   trig=  10.1500n
 delaynand3=   1.2833n  targ=  11.4333n   trig=  10.1500n
 delaynand4=   1.6996n  targ=  11.8496n   trig=  10.1500n
 pw= 200.4027u  from=   0.             to=  40.0000n

          ***** job concluded
 ******  
 lab5-2 cascaded dynamic nand (loading c=0.1p)

 ****** job statistics summary tnom=  25.000 temp=  25.000 ******
  
  
 ******  Machine Information  ******
 CPU:
 model name	: Intel(R) Core(TM) i7-10870H CPU @ 2.20GHz
 cpu MHz	: 2207.298
  
 OS:
 Linux version 3.10.0-693.el7.x86_64 (builder@kbuilder.dev.centos.org) (gcc version 4.8.5 20150623 (Red Hat 4.8.5-16) (GCC) ) #1 SMP Tue Aug 22 21:09:27 UTC 2017


  ******  HSPICE Threads Information  ******

  Command Line Threads Count :     1
  Available CPU Count        :     2
  Actual Threads Count       :     1


  ****** Statistics of Ignored Elements ******
  Voltage Sources :       1

  ******  Circuit Statistics  ******
  # nodes       =      72 # elements   =      35
  # resistors   =       0 # capacitors =       4 # inductors   =       0
  # mutual_inds =       0 # vccs       =       0 # vcvs        =       0
  # cccs        =       0 # ccvs       =       0 # volt_srcs   =       7
  # curr_srcs   =       0 # diodes     =       0 # bjts        =       0
  # jfets       =       0 # mosfets    =      24 # U elements  =       0
  # T elements  =       0 # W elements =       0 # B elements  =       0
  # S elements  =       0 # P elements =       0 # va device   =       0
  # vector_srcs =       0 # N elements =       0


  ******  Runtime Statistics (seconds)  ******

  analysis           time    # points   tot. iter  conv.iter
  op point           0.00           1          22
  transient          0.08         401        1474         500 rev=        24
  readin             0.01
  errchk             0.01
  setup              0.00
  output             0.00


           peak memory used        310.34 megabytes
           total cpu time            0.10 seconds
           total elapsed time        0.09 seconds
           job started at     21:42:44 04/07/2024
           job ended   at     21:42:44 04/07/2024


 lic: Release hspice token(s) 
 lic: total license checkout elapse time:        0.02(s)
