$DATA1 SOURCE='HSPICE' VERSION='N-2017.12 linux64' PARAM_COUNT=1
.TITLE '4-input nor (loading c=0.02p~0.3p)'
 k                delayn           pw               pdp             
                  temper           alter#          
  2.000e-14        5.298e-10        5.997e-06        3.177e-15      
                    25.0000        1               
  6.000e-14        1.139e-09        1.236e-05        1.407e-14      
                    25.0000        1               
  1.000e-13        1.759e-09        1.929e-05        3.394e-14      
                    25.0000        1               
  1.400e-13        2.432e-09        2.575e-05        6.261e-14      
                    25.0000        1               
  1.800e-13        2.988e-09        3.193e-05        9.539e-14      
                    25.0000        1               
  2.200e-13        3.572e-09        3.744e-05        1.337e-13      
                    25.0000        1               
  2.600e-13        4.192e-09        4.190e-05        1.757e-13      
                    25.0000        1               
  3.000e-13        4.884e-09        4.535e-05        2.215e-13      
                    25.0000        1               
